@<TRIPOS>MOLECULE
LIG
   54    58     1     0     0
SMALL
bcc


@<TRIPOS>ATOM
      1 O            3.8210     2.9250     8.1040 o          1 LIG      -0.487300
      2 C            4.4170     2.0770     7.2410 c          1 LIG       1.008200
      3 O1           5.2130     1.2200     7.5940 o          1 LIG      -0.487300
      4 C1           4.0660     2.3050     5.8160 ca         1 LIG       0.313400
      5 C2           2.8040     2.7680     5.4210 ca         1 LIG      -0.120000
      6 C3           2.5280     2.9540     4.0650 ca         1 LIG      -0.068000
      7 C4           3.5020     2.6740     3.1050 ca         1 LIG      -0.119000
      8 C5           4.7630     2.1860     3.4820 ca         1 LIG      -0.035300
      9 C6           5.8120     1.8720     2.4350 c3         1 LIG       0.151300
     10 N            6.2520     0.4920     2.4440 n          1 LIG      -0.399000
     11 C7           7.5450     0.0910     2.7870 c          1 LIG       0.713500
     12 O2           8.4760     0.8230     3.0950 o          1 LIG      -0.625500
     13 C8           7.6040    -1.4610     2.7180 c3         1 LIG      -0.037700
     14 C9           7.8480    -2.0300     4.1270 c3         1 LIG      -0.081400
     15 C10          9.3150    -2.0430     4.5400 c3         1 LIG       0.222800
     16 N1          10.1550    -2.6510     3.4940 n3         1 LIG      -0.809500
     17 C11         10.0810    -1.9350     2.2110 c3         1 LIG       0.222800
     18 C12          8.6530    -1.8830     1.6710 c3         1 LIG      -0.081400
     19 S           10.3760    -4.3320     3.4860 sy         1 LIG       1.554200
     20 O3           9.0950    -4.9580     3.7020 o          1 LIG      -0.650300
     21 O4          11.2030    -4.6920     2.3440 o          1 LIG      -0.650300
     22 C13         11.3540    -4.7740     4.9160 cc         1 LIG      -0.514600
     23 C14         11.1130    -5.6120     5.9910 cd         1 LIG      -0.028000
     24 C15         12.1890    -5.6200     6.9290 cd         1 LIG      -0.179000
     25 C16         13.2240    -4.8040     6.5300 cc         1 LIG      -0.175100
     26 S1          12.9010    -4.0460     5.0290 ss         1 LIG       0.284200
     27 C17          6.1820    -1.7820     2.2760 ca         1 LIG      -0.132300
     28 C18          5.5750    -3.0200     2.0910 ca         1 LIG      -0.044000
     29 C19          4.2150    -3.0490     1.7660 ca         1 LIG      -0.043900
     30 Br           3.3370    -4.7090     1.5410 br         1 LIG      -0.041100
     31 C20          3.4800    -1.8650     1.6180 ca         1 LIG      -0.066000
     32 C21          4.1010    -0.6270     1.7940 ca         1 LIG      -0.159000
     33 C22          5.4430    -0.6070     2.1390 ca         1 LIG       0.044600
     34 C23          5.0340     2.0030     4.8470 ca         1 LIG      -0.122000
     35 H            2.0820     2.9710     6.1290 ha         1 LIG       0.246000
     36 H1           1.6010     3.2990     3.7720 ha         1 LIG       0.210000
     37 H2           3.2930     2.8280     2.1070 ha         1 LIG       0.197000
     38 H3           6.6620     2.4980     2.6110 h1         1 LIG       0.094700
     39 H4           5.3630     2.0500     1.4800 h1         1 LIG       0.094700
     40 H5           7.4820    -3.0350     4.1520 hc         1 LIG       0.068700
     41 H6           7.3370    -1.3890     4.8140 hc         1 LIG       0.068700
     42 H7           9.4190    -2.6080     5.4430 h1         1 LIG       0.063950
     43 H8           9.6360    -1.0330     4.6890 h1         1 LIG       0.063950
     44 H9          10.7020    -2.4360     1.4980 h1         1 LIG       0.063950
     45 H10         10.4120    -0.9300     2.3720 h1         1 LIG       0.063950
     46 H11          8.6240    -1.1810     0.8630 hc         1 LIG       0.068700
     47 H12          8.4020    -2.8760     1.3620 hc         1 LIG       0.068700
     48 H13         10.2510    -6.1680     6.1030 ha         1 LIG       0.176000
     49 H14         12.1910    -6.1720     7.8010 ha         1 LIG       0.168000
     50 H15         14.0910    -4.6650     7.0720 h4         1 LIG       0.186000
     51 H16          6.1140    -3.8940     2.1910 ha         1 LIG       0.170000
     52 H17          2.4770    -1.9080     1.3790 ha         1 LIG       0.161000
     53 H18          3.5740     0.2520     1.6700 ha         1 LIG       0.135000
     54 H19          5.9550     1.6420     5.1400 ha         1 LIG       0.275000
@<TRIPOS>BOND
     1     1     2 1   
     2     2     3 1   
     3     2     4 1   
     4     4     5 ar  
     5     4    34 ar  
     6     5     6 ar  
     7     5    35 1   
     8     6     7 ar  
     9     6    36 1   
    10     7     8 ar  
    11     7    37 1   
    12     8     9 1   
    13     8    34 ar  
    14     9    10 1   
    15     9    38 1   
    16     9    39 1   
    17    10    11 1   
    18    10    33 1   
    19    11    12 2   
    20    11    13 1   
    21    13    14 1   
    22    13    18 1   
    23    13    27 1   
    24    14    15 1   
    25    14    40 1   
    26    14    41 1   
    27    15    16 1   
    28    15    42 1   
    29    15    43 1   
    30    16    17 1   
    31    16    19 1   
    32    17    18 1   
    33    17    44 1   
    34    17    45 1   
    35    18    46 1   
    36    18    47 1   
    37    19    20 2   
    38    19    21 2   
    39    19    22 1   
    40    22    23 2   
    41    22    26 1   
    42    23    24 1   
    43    23    48 1   
    44    24    25 2   
    45    24    49 1   
    46    25    26 1   
    47    25    50 1   
    48    27    28 ar  
    49    27    33 ar  
    50    28    29 ar  
    51    28    51 1   
    52    29    30 1   
    53    29    31 ar  
    54    31    32 ar  
    55    31    52 1   
    56    32    33 ar  
    57    32    53 1   
    58    34    54 1   
@<TRIPOS>SUBSTRUCTURE
     1 LIG         1 TEMP              0 ****  ****    0 ROOT
