@<TRIPOS>MOLECULE
LIG
   57    61     1     0     0
SMALL
No Charge or Current Charge


@<TRIPOS>ATOM
      1 N1          40.6440    14.6200     1.4800 n          0 LIG      -0.364912
      2 N2          44.5580    11.8250     2.8210 n3         0 LIG      -0.817412
      3 C3          35.7060    18.6450    -0.6050 c          0 LIG       0.906288
      4 C4          36.6580    17.7680     0.1470 ca         0 LIG      -0.108512
      5 C5          38.0450    17.9910     0.0860 ca         0 LIG      -0.110912
      6 C6          38.9370    17.1480     0.7810 ca         0 LIG      -0.143912
      7 C7          38.4530    15.9990     1.4400 ca         0 LIG      -0.160212
      8 C8          39.3750    15.0040     2.1220 c3         0 LIG       0.156388
      9 C9          41.6200    14.0250     2.1900 c          0 LIG       0.699588
     10 C10         42.7980    13.5970     1.2850 c3         0 LIG      -0.059612
     11 C11         42.8250    12.0750     1.0790 c3         0 LIG      -0.068812
     12 C12         43.2730    11.3180     2.3240 c3         0 LIG       0.215888
     13 C13         44.6520    13.2880     3.0240 c3         0 LIG       0.215888
     14 C14         44.1800    14.0660     1.7810 c3         0 LIG      -0.068812
     15 C15         44.2870    10.3830     5.1810 ca         0 LIG      -0.389412
     16 C16         43.7810    11.3820     6.0390 ca         0 LIG       0.246988
     17 C17         42.8190    11.0470     7.0130 ca         0 LIG      -0.191912
     18 C18         42.3670     9.7220     7.1440 ca         0 LIG      -0.050912
     19 C19         42.8800     8.7220     6.3010 ca         0 LIG      -0.173912
     20 C20         43.8340     9.0540     5.3190 ca         0 LIG      -0.011912
     21 C21         42.3520    14.2460     0.0050 ca         0 LIG      -0.161212
     22 C22         43.0540    14.2890    -1.2110 ca         0 LIG      -0.055912
     23 C23         42.3930    14.7990    -2.3430 ca         0 LIG      -0.068812
     24 C24         41.0490    15.2150    -2.2480 ca         0 LIG      -0.062912
     25 C25         40.3560    15.1610    -1.0210 ca         0 LIG      -0.149912
     26 C26         41.0490    14.7190     0.1230 ca         0 LIG       0.092688
     27 C27         37.0650    15.7710     1.4970 ca         0 LIG      -0.143912
     28 C28         36.1770    16.6620     0.8760 ca         0 LIG      -0.110912
     29 O29         34.4960    18.3500    -0.6370 o          0 LIG      -0.824712
     30 O30         36.1200    19.5630    -1.3470 o          0 LIG      -0.824712
     31 O31         41.6160    13.8590     3.4130 o          0 LIG      -0.616412
     32 O32         45.6690     9.5310     3.0780 o          0 LIG      -0.653212
     33 O33         46.6040    11.5110     4.3550 o          0 LIG      -0.653212
     34 Br34        43.3200    14.9110    -3.9990 br         0 LIG      -0.107012
     35 S35         45.4460    10.7590     3.8490 sy         0 LIG       1.507288
     36 F36         44.2290    12.6550     5.9740 f          0 LIG      -0.125812
     37 H37         44.2260     8.2880     4.6710 ha         0 LIG       0.167088
     38 H38         38.4100    18.8140    -0.5090 ha         0 LIG       0.155588
     39 H39         39.9990    17.3320     0.7370 ha         0 LIG       0.108588
     40 H40         39.5890    15.4240     3.1060 h1         0 LIG       0.058788
     41 H41         38.8210    14.0860     2.3160 h1         0 LIG       0.058788
     42 H42         43.4860    11.8210     0.2500 hc         0 LIG       0.063288
     43 H43         41.8330    11.7260     0.7940 hc         0 LIG       0.063288
     44 H44         42.5240    11.3830     3.1150 h1         0 LIG       0.067538
     45 H45         43.3750    10.2630     2.0810 h1         0 LIG       0.067538
     46 H46         45.6840    13.5620     3.2510 h1         0 LIG       0.067538
     47 H47         44.0660    13.5790     3.8910 h1         0 LIG       0.067538
     48 H48         44.1640    15.1350     1.9990 hc         0 LIG       0.063288
     49 H49         44.9170    13.9290     0.9890 hc         0 LIG       0.063288
     50 H50         42.4360    11.8080     7.6740 ha         0 LIG       0.156088
     51 H51         41.6380     9.4720     7.9020 ha         0 LIG       0.138088
     52 H52         42.5430     7.7040     6.4140 ha         0 LIG       0.141088
     53 H53         44.0670    13.9300    -1.2810 ha         0 LIG       0.144088
     54 H54         40.5420    15.5910    -3.1160 ha         0 LIG       0.150088
     55 H55         39.3180    15.4470    -0.9910 ha         0 LIG       0.173088
     56 H56         36.6700    14.9040     2.0050 ha         0 LIG       0.108588
     57 H57         35.1180    16.4740     0.9200 ha         0 LIG       0.155588
@<TRIPOS>BOND
     1     1     8 1   
     2     1     9 1   
     3     1    26 1   
     4     2    12 1   
     5     2    13 1   
     6     2    35 1   
     7     3     4 1   
     8     3    29 1   
     9     3    30 1   
    10     4     5 ar  
    11     4    28 ar  
    12     5     6 ar  
    13     5    38 1   
    14     6     7 ar  
    15     6    39 1   
    16     7     8 1   
    17     7    27 ar  
    18     8    40 1   
    19     8    41 1   
    20     9    10 1   
    21     9    31 2   
    22    10    11 1   
    23    10    14 1   
    24    10    21 1   
    25    11    12 1   
    26    11    42 1   
    27    11    43 1   
    28    12    44 1   
    29    12    45 1   
    30    13    14 1   
    31    13    46 1   
    32    13    47 1   
    33    14    48 1   
    34    14    49 1   
    35    15    16 ar  
    36    15    20 ar  
    37    15    35 1   
    38    16    17 ar  
    39    16    36 1   
    40    17    18 ar  
    41    17    50 1   
    42    18    19 ar  
    43    18    51 1   
    44    19    20 ar  
    45    19    52 1   
    46    20    37 1   
    47    21    22 ar  
    48    21    26 ar  
    49    22    23 ar  
    50    22    53 1   
    51    23    24 ar  
    52    23    34 1   
    53    24    25 ar  
    54    24    54 1   
    55    25    26 ar  
    56    25    55 1   
    57    27    28 ar  
    58    27    56 1   
    59    28    57 1   
    60    32    35 2   
    61    33    35 2   
@<TRIPOS>SUBSTRUCTURE
     1 LIG         1 TEMP              0 ****  ****    0 ROOT
