@<TRIPOS>MOLECULE
LIG
   12    12     1     0     0
SMALL
bcc


@<TRIPOS>ATOM
      1 C           -0.7600     1.1690    -0.0010 ca         1 LIG      -0.130000
      2 C1           0.6330     1.2450    -0.0010 ca         1 LIG      -0.130000
      3 C2           1.3950     0.0770     0.0000 ca         1 LIG      -0.130000
      4 C3           0.7640    -1.1680     0.0030 ca         1 LIG      -0.130000
      5 C4          -0.6290    -1.2430     0.0000 ca         1 LIG      -0.130000
      6 C5          -1.3910    -0.0750    -0.0020 ca         1 LIG      -0.130000
      7 H           -1.3540     2.0790     0.0010 ha         1 LIG       0.130000
      8 H1           1.1240     2.2140    -0.0030 ha         1 LIG       0.130000
      9 H2           2.4800     0.1350    -0.0000 ha         1 LIG       0.130000
     10 H3           1.3580    -2.0780     0.0060 ha         1 LIG       0.130000
     11 H4          -1.1200    -2.2130    -0.0000 ha         1 LIG       0.130000
     12 H5          -2.4760    -0.1340    -0.0030 ha         1 LIG       0.130000
@<TRIPOS>BOND
     1     1     2 ar  
     2     1     6 ar  
     3     1     7 1   
     4     2     3 ar  
     5     2     8 1   
     6     3     4 ar  
     7     3     9 1   
     8     4     5 ar  
     9     4    10 1   
    10     5     6 ar  
    11     5    11 1   
    12     6    12 1   
@<TRIPOS>SUBSTRUCTURE
     1 LIG         1 TEMP              0 ****  ****    0 ROOT
