# Molecule written by the XED library from Cresset
@<TRIPOS>MOLECULE
CHEMBL3819531
    55     58      1
SMALL
USER_CHARGES
@<TRIPOS>ATOM
      1 C           -9.7803   -1.1072    0.4961 C.3       1 MOL1       -0.0471
      2 O           -8.4323   -1.5454    0.2319 O.3       1 MOL1       -0.2037
      3 C           -7.4661   -0.6244    0.1092 C.ar      1 MOL1        0.0592
      4 C           -7.7018    0.7329    0.2559 C.ar      1 MOL1       -0.0839
      5 C           -6.6761    1.6345    0.1068 C.ar      1 MOL1       -0.0862
      6 C           -5.4069    1.1940   -0.1906 C.ar      1 MOL1       -0.1014
      7 C           -5.1456   -0.1526   -0.3329 C.ar      1 MOL1       -0.0479
      8 C           -3.7652   -0.7059   -0.6894 C.3       1 MOL1       -0.0030
      9 N           -2.5547   -0.1857   -0.0134 N.3       1 MOL1       -0.2520
     10 C           -1.4158   -1.0807   -0.2948 C.3       1 MOL1       -0.0455
     11 C           -0.0933   -0.6600    0.3897 C.3       1 MOL1       -0.0701
     12 C            0.0896    0.8747    0.4431 C.3       1 MOL1       -0.0233
     13 C           -0.7598    1.5411   -0.6527 C.3       1 MOL1       -0.0701
     14 C           -2.2539    1.1984   -0.4575 C.3       1 MOL1       -0.0455
     15 C            1.5090    1.3903    0.3161 C.2       1 MOL1       -0.0522
     16 C            2.6870    0.7809    0.1647 C.2       1 MOL1       -0.0313
     17 C            3.1977   -0.6521    0.1019 C.3       1 MOL1       -0.0039
     18 C            4.7137   -0.5263    0.0795 C.ar      1 MOL1       -0.0261
     19 C            5.6590   -1.5152    0.0564 C.ar      1 MOL1       -0.0769
     20 C            7.0096   -1.1756    0.0127 C.ar      1 MOL1        0.0761
     21 O            7.9753   -2.0934   -0.0145 O.3       1 MOL1       -0.2006
     22 C            7.6105   -3.4889   -0.0056 C.3       1 MOL1       -0.0471
     23 C            7.3757    0.1658   -0.0065 C.ar      1 MOL1       -0.0813
     24 C            6.4324    1.1613    0.0195 C.ar      1 MOL1       -0.0567
     25 C            5.0963    0.7962    0.0645 C.ar      1 MOL1       -0.0065
     26 C            3.8855    1.5986    0.1063 C.2       1 MOL1        0.1997
     27 O            3.9326    2.8204    0.0982 O.2       1 MOL1       -0.3897
     28 C           -6.1827   -1.0471   -0.1820 C.ar      1 MOL1       -0.0782
     29  H         -10.5022   -2.0635    0.5620 H         1 MOL1        0.0618
     30  H          -9.8128   -0.5128    1.5380 H         1 MOL1        0.0618
     31  H         -10.1558   -0.3884   -0.3888 H         1 MOL1        0.0618
     32  H          -8.6219    1.0616    0.4677 H         1 MOL1        0.0924
     33  H          -6.8533    2.6132    0.2105 H         1 MOL1        0.0906
     34  H          -4.6723    1.8592   -0.3080 H         1 MOL1        0.0908
     35  H          -3.8161   -1.8805   -0.4446 H         1 MOL1        0.0598
     36  H          -3.6190   -0.6211   -1.8776 H         1 MOL1        0.0598
     37  H          -1.2602   -1.1011   -1.4849 H         1 MOL1        0.0568
     38  H          -1.6593   -2.1989    0.0673 H         1 MOL1        0.0568
     39  H          -0.0517   -1.1006    1.5062 H         1 MOL1        0.0476
     40  H           0.7807   -1.1646   -0.2515 H         1 MOL1        0.0476
     41  H          -0.3428    1.2658    1.4926 H         1 MOL1        0.0514
     42  H          -0.3921    1.1449   -1.7238 H         1 MOL1        0.0476
     43  H          -0.6192    2.7325   -0.6146 H         1 MOL1        0.0476
     44  H          -2.6659    1.9305    0.3996 H         1 MOL1        0.0568
     45  H          -2.8014    1.4761   -1.4891 H         1 MOL1        0.0568
     46  H           1.5728    2.3769    0.3498 H         1 MOL1        0.0887
     47  H           2.8226   -1.2966    1.0423 H         1 MOL1        0.0524
     48  H           2.8839   -1.1685   -0.9350 H         1 MOL1        0.0524
     49  H           5.3788   -2.4748    0.0668 H         1 MOL1        0.0926
     50  H           6.9390   -3.7388   -0.9684 H         1 MOL1        0.0618
     51  H           6.9910   -3.7408    0.9911 H         1 MOL1        0.0618
     52  H           8.6059   -4.1585   -0.0327 H         1 MOL1        0.0618
     53  H           8.3448    0.4119   -0.0398 H         1 MOL1        0.0924
     54  H           6.7017    2.1243    0.0064 H         1 MOL1        0.0910
     55  H          -6.0055   -2.0253   -0.2923 H         1 MOL1        0.0926
@<TRIPOS>BOND
     1      1      2 1 
     2      2      3 1 
     3      3      4 ar
     4      4      5 ar
     5      5      6 ar
     6      6      7 ar
     7      7      8 1 
     8      7     28 ar
     9      8      9 1 
    10      9     10 1 
    11     10     11 1 
    12     11     12 1 
    13     12     13 1 
    14     12     15 1 
    15     13     14 1 
    16     14      9 1 
    17     15     16 2 
    18     16     17 1 
    19     16     26 1 
    20     17     18 1 
    21     18     19 ar
    22     19     20 ar
    23     20     21 1 
    24     20     23 ar
    25     21     22 1 
    26     23     24 ar
    27     24     25 ar
    28     25     18 ar
    29     25     26 1 
    30     26     27 2 
    31     28      3 ar
    32      1     29 1 
    33      1     30 1 
    34      1     31 1 
    35      4     32 1 
    36      5     33 1 
    37      6     34 1 
    38      8     35 1 
    39      8     36 1 
    40     10     37 1 
    41     10     38 1 
    42     11     39 1 
    43     11     40 1 
    44     12     41 1 
    45     13     42 1 
    46     13     43 1 
    47     14     44 1 
    48     14     45 1 
    49     15     46 1 
    50     17     47 1 
    51     17     48 1 
    52     19     49 1 
    53     22     50 1 
    54     22     51 1 
    55     22     52 1 
    56     23     53 1 
    57     24     54 1 
    58     28     55 1 
@<TRIPOS>SUBSTRUCTURE
     1 MOL1         1 MOLECULE          1 A
