# Molecule written by the XED library from Cresset
@<TRIPOS>MOLECULE
CHEMBL92460
    48     51      1
SMALL
USER_CHARGES
@<TRIPOS>ATOM
      1 C            1.2918   -1.4368    0.0656 C.3       1 MOL1       -0.0806
      2 C            2.1656   -0.2767    0.5807 C.3       1 MOL1       -0.0333
      3 C            3.6500   -0.4933    0.3532 C.ar      1 MOL1        0.1096
      4 N            4.1857   -1.6730    0.2803 N.ar      1 MOL1       -0.2643
      5 O            5.5773   -1.4923    0.0707 O.3       1 MOL1       -0.0824
      6 C            5.7885   -0.1692    0.0332 C.ar      1 MOL1        0.1030
      7 C            7.0025    0.4661   -0.1477 C.ar      1 MOL1       -0.0788
      8 C            7.0054    1.8393   -0.1540 C.ar      1 MOL1       -0.0666
      9 C            5.8268    2.5606    0.0179 C.ar      1 MOL1       -0.1033
     10 C            4.6264    1.9232    0.1979 C.ar      1 MOL1       -0.0563
     11 C            4.6262    0.5344    0.2025 C.ar      1 MOL1       -0.0006
     12 C           -0.2165   -1.1329    0.1995 C.3       1 MOL1       -0.0563
     13 C           -0.7204   -0.2948   -0.9915 C.3       1 MOL1       -0.0743
     14 C           -2.2212    0.0366   -0.8200 C.3       1 MOL1       -0.0462
     15 N           -3.0288   -1.0102   -0.1480 N.3       1 MOL1       -0.2521
     16 C           -4.4216   -0.9992   -0.6501 C.3       1 MOL1       -0.0032
     17 C           -5.3218    0.1602   -0.2245 C.ar      1 MOL1       -0.0509
     18 C           -5.0303    1.4667   -0.5565 C.ar      1 MOL1       -0.0846
     19 C           -5.8685    2.4913   -0.1790 C.ar      1 MOL1       -0.0900
     20 C           -7.0130    2.2174    0.5328 C.ar      1 MOL1       -0.0906
     21 C           -7.3162    0.9176    0.8638 C.ar      1 MOL1       -0.0900
     22 C           -6.4743   -0.1037    0.4856 C.ar      1 MOL1       -0.0846
     23 C           -2.4263   -2.3391   -0.3636 C.3       1 MOL1       -0.0462
     24 C           -1.0165   -2.4574    0.2666 C.3       1 MOL1       -0.0743
     25  H           1.5616   -2.4065    0.7198 H         1 MOL1        0.0465
     26  H           1.5583   -1.6597   -1.0831 H         1 MOL1        0.0465
     27  H           1.8650    0.7414    0.0240 H         1 MOL1        0.0503
     28  H           1.9745   -0.1363    1.7570 H         1 MOL1        0.0503
     29  H           7.8475   -0.0548   -0.2692 H         1 MOL1        0.0924
     30  H           7.8677    2.3292   -0.2833 H         1 MOL1        0.0906
     31  H           5.8562    3.5602    0.0105 H         1 MOL1        0.0906
     32  H           3.7798    2.4405    0.3224 H         1 MOL1        0.0910
     33  H          -0.4080   -0.5035    1.2038 H         1 MOL1        0.0488
     34  H          -0.1069    0.7297   -1.1010 H         1 MOL1        0.0474
     35  H          -0.5688   -0.9435   -1.9902 H         1 MOL1        0.0474
     36  H          -2.3092    1.0247   -0.1444 H         1 MOL1        0.0568
     37  H          -2.6377    0.2975   -1.9157 H         1 MOL1        0.0568
     38  H          -4.9622   -2.0019   -0.2700 H         1 MOL1        0.0598
     39  H          -4.4176   -1.0595   -1.8484 H         1 MOL1        0.0598
     40  H          -4.2039    1.6733   -1.0797 H         1 MOL1        0.0908
     41  H          -5.6467    3.4348   -0.4247 H         1 MOL1        0.0906
     42  H          -7.6237    2.9605    0.8068 H         1 MOL1        0.0906
     43  H          -8.1494    0.7140    1.3779 H         1 MOL1        0.0906
     44  H          -6.7062   -1.0459    0.7262 H         1 MOL1        0.0908
     45  H          -3.1096   -3.2045    0.1114 H         1 MOL1        0.0568
     46  H          -2.3507   -2.5211   -1.5474 H         1 MOL1        0.0568
     47  H          -1.1155   -2.7866    1.4173 H         1 MOL1        0.0474
     48  H          -0.4262   -3.3245   -0.3179 H         1 MOL1        0.0474
@<TRIPOS>BOND
     1      1      2 1 
     2      1     12 1 
     3      2      3 1 
     4      3      4 ar
     5      4      5 ar
     6      5      6 ar
     7      6      7 ar
     8      7      8 ar
     9      8      9 ar
    10      9     10 ar
    11     10     11 ar
    12     11      3 ar
    13     11      6 ar
    14     12     13 1 
    15     13     14 1 
    16     14     15 1 
    17     15     16 1 
    18     15     23 1 
    19     16     17 1 
    20     17     18 ar
    21     18     19 ar
    22     19     20 ar
    23     20     21 ar
    24     21     22 ar
    25     22     17 ar
    26     23     24 1 
    27     24     12 1 
    28      1     25 1 
    29      1     26 1 
    30      2     27 1 
    31      2     28 1 
    32      7     29 1 
    33      8     30 1 
    34      9     31 1 
    35     10     32 1 
    36     12     33 1 
    37     13     34 1 
    38     13     35 1 
    39     14     36 1 
    40     14     37 1 
    41     16     38 1 
    42     16     39 1 
    43     18     40 1 
    44     19     41 1 
    45     20     42 1 
    46     21     43 1 
    47     22     44 1 
    48     23     45 1 
    49     23     46 1 
    50     24     47 1 
    51     24     48 1 
@<TRIPOS>SUBSTRUCTURE
     1 MOL1         1 MOLECULE          1 A
