# Molecule written by the XED library from Cresset
@<TRIPOS>MOLECULE
CHEMBL3818616
    48     51      1
SMALL
USER_CHARGES
@<TRIPOS>ATOM
      1 O           -6.4992   -1.7700   -0.1689 O.3       1 MOL1       -0.3794
      2 C           -6.0830   -0.4828   -0.1286 C.ar      1 MOL1        0.0857
      3 C           -6.9953    0.5581   -0.1255 C.ar      1 MOL1       -0.0832
      4 C           -6.5627    1.8640   -0.0803 C.ar      1 MOL1       -0.0711
      5 C           -5.2107    2.1628   -0.0313 C.ar      1 MOL1       -0.1004
      6 C           -4.3013    1.1402   -0.0316 C.ar      1 MOL1       -0.0278
      7 C           -2.7839    1.2104    0.0514 C.3       1 MOL1       -0.0040
      8 C           -2.3189   -0.2340   -0.0698 C.2       1 MOL1       -0.0313
      9 C           -1.1573   -0.8698   -0.2383 C.2       1 MOL1       -0.0523
     10 C            0.2779   -0.3844   -0.2905 C.3       1 MOL1       -0.0233
     11 C            1.0800   -1.1770    0.7581 C.3       1 MOL1       -0.0701
     12 C            2.5896   -0.8421    0.6853 C.3       1 MOL1       -0.0455
     13 N            2.9032    0.5321    0.2241 N.3       1 MOL1       -0.2520
     14 C            4.1933    0.9918    0.7831 C.3       1 MOL1       -0.0032
     15 C            5.4614    0.3384    0.2423 C.ar      1 MOL1       -0.0509
     16 C            5.7418   -0.9900    0.4808 C.ar      1 MOL1       -0.0846
     17 C            6.9047   -1.5543    0.0067 C.ar      1 MOL1       -0.0900
     18 C            7.7994   -0.7908   -0.7077 C.ar      1 MOL1       -0.0906
     19 C            7.5261    0.5349   -0.9496 C.ar      1 MOL1       -0.0900
     20 C            6.3615    1.0951   -0.4773 C.ar      1 MOL1       -0.0846
     21 C            1.8298    1.4615    0.6196 C.3       1 MOL1       -0.0455
     22 C            0.4777    1.1326   -0.0593 C.3       1 MOL1       -0.0701
     23 C           -3.5464   -1.0104   -0.0934 C.2       1 MOL1        0.2037
     24 O           -3.6310   -2.2296   -0.1226 O.2       1 MOL1       -0.3904
     25 C           -4.7312   -0.1681   -0.0868 C.ar      1 MOL1        0.0120
     26  H          -7.5038   -1.8295   -0.1873 H         1 MOL1        0.3295
     27  H          -7.9755    0.3625   -0.1563 H         1 MOL1        0.0924
     28  H          -7.2326    2.6065   -0.0795 H         1 MOL1        0.0906
     29  H          -4.9043    3.1137    0.0088 H         1 MOL1        0.0908
     30  H          -2.5345    1.6386    1.1443 H         1 MOL1        0.0524
     31  H          -2.3114    1.9061   -0.8047 H         1 MOL1        0.0524
     32  H          -1.2491   -1.8489   -0.3404 H         1 MOL1        0.0887
     33  H           0.7320   -0.6731   -1.3640 H         1 MOL1        0.0514
     34  H           0.6559   -0.8713    1.8387 H         1 MOL1        0.0476
     35  H           0.9235   -2.3565    0.5988 H         1 MOL1        0.0476
     36  H           3.1195   -1.5985   -0.0816 H         1 MOL1        0.0568
     37  H           3.0407   -1.0626    1.7761 H         1 MOL1        0.0568
     38  H           4.2982    2.1667    0.5577 H         1 MOL1        0.0598
     39  H           4.1827    0.8822    1.9782 H         1 MOL1        0.0598
     40  H           5.0958   -1.5469    1.0043 H         1 MOL1        0.0908
     41  H           7.0995   -2.5188    0.1839 H         1 MOL1        0.0906
     42  H           8.6461   -1.1985   -1.0499 H         1 MOL1        0.0906
     43  H           8.1745    1.0934   -1.4669 H         1 MOL1        0.0906
     44  H           6.1715    2.0602   -0.6557 H         1 MOL1        0.0908
     45  H           1.7080    1.3966    1.8122 H         1 MOL1        0.0568
     46  H           2.1137    2.5927    0.3357 H         1 MOL1        0.0568
     47  H           0.3948    1.7003   -1.1148 H         1 MOL1        0.0476
     48  H          -0.3723    1.5552    0.6690 H         1 MOL1        0.0476
@<TRIPOS>BOND
     1      1      2 1 
     2      2      3 ar
     3      3      4 ar
     4      4      5 ar
     5      5      6 ar
     6      6      7 1 
     7      7      8 1 
     8      8      9 2 
     9      8     23 1 
    10      9     10 1 
    11     10     11 1 
    12     11     12 1 
    13     12     13 1 
    14     13     14 1 
    15     13     21 1 
    16     14     15 1 
    17     15     16 ar
    18     16     17 ar
    19     17     18 ar
    20     18     19 ar
    21     19     20 ar
    22     20     15 ar
    23     21     22 1 
    24     22     10 1 
    25     23     24 2 
    26     23     25 1 
    27     25      2 ar
    28     25      6 ar
    29      1     26 1 
    30      3     27 1 
    31      4     28 1 
    32      5     29 1 
    33      7     30 1 
    34      7     31 1 
    35      9     32 1 
    36     10     33 1 
    37     11     34 1 
    38     11     35 1 
    39     12     36 1 
    40     12     37 1 
    41     14     38 1 
    42     14     39 1 
    43     16     40 1 
    44     17     41 1 
    45     18     42 1 
    46     19     43 1 
    47     20     44 1 
    48     21     45 1 
    49     21     46 1 
    50     22     47 1 
    51     22     48 1 
@<TRIPOS>SUBSTRUCTURE
     1 MOL1         1 MOLECULE          1 A
