# Molecule written by the XED library from Cresset
@<TRIPOS>MOLECULE
CHEMBL92629
    47     50      1
SMALL
USER_CHARGES
@<TRIPOS>ATOM
      1 C            1.2770   -1.4529   -0.4680 C.3       1 MOL1       -0.0394
      2 N            2.2213   -0.3547   -0.2083 N.pl3     1 MOL1       -0.2573
      3 C            3.5834   -0.5686   -0.1738 C.ar      1 MOL1        0.1689
      4 N            4.1453   -1.7462   -0.2863 N.ar      1 MOL1       -0.3286
      5 O            5.5441   -1.5186   -0.2016 O.3       1 MOL1       -0.0924
      6 C            5.7215   -0.1942   -0.0460 C.ar      1 MOL1        0.0962
      7 C            6.9311    0.4632    0.0707 C.ar      1 MOL1       -0.0793
      8 C            6.9043    1.8290    0.2209 C.ar      1 MOL1       -0.0737
      9 C            5.6996    2.5236    0.2541 C.ar      1 MOL1       -0.1051
     10 C            4.5009    1.8662    0.1370 C.ar      1 MOL1       -0.0593
     11 C            4.5360    0.4885   -0.0144 C.ar      1 MOL1        0.0021
     12 C           -0.0980   -1.2189    0.1850 C.3       1 MOL1       -0.0438
     13 C           -0.8663   -0.0628   -0.4862 C.3       1 MOL1       -0.0723
     14 C           -2.2000    0.1298    0.2586 C.3       1 MOL1       -0.0461
     15 N           -3.0449   -1.0802    0.1969 N.3       1 MOL1       -0.2521
     16 C           -4.3054   -0.8677    0.9374 C.3       1 MOL1       -0.0032
     17 C           -5.2437    0.2018    0.3911 C.ar      1 MOL1       -0.0509
     18 C           -5.1758    1.4886    0.8797 C.ar      1 MOL1       -0.0846
     19 C           -6.0195    2.4619    0.3968 C.ar      1 MOL1       -0.0900
     20 C           -6.9412    2.1488   -0.5755 C.ar      1 MOL1       -0.0906
     21 C           -7.0187    0.8642   -1.0626 C.ar      1 MOL1       -0.0900
     22 C           -6.1708   -0.1070   -0.5802 C.ar      1 MOL1       -0.0846
     23 C           -2.3220   -2.2352    0.7674 C.3       1 MOL1       -0.0461
     24 C           -0.9664   -2.4867    0.0716 C.3       1 MOL1       -0.0723
     25  H           1.7321   -2.4735   -0.0287 H         1 MOL1        0.0571
     26  H           1.1270   -1.5733   -1.6526 H         1 MOL1        0.0571
     27  H           1.9148    0.4623   -0.0910 H         1 MOL1        0.2761
     28  H           7.7961   -0.0382    0.0455 H         1 MOL1        0.0924
     29  H           7.7647    2.3309    0.3076 H         1 MOL1        0.0906
     30  H           5.7074    3.5170    0.3642 H         1 MOL1        0.0906
     31  H           3.6329    2.3625    0.1589 H         1 MOL1        0.0910
     32  H           0.0628   -0.9633    1.3460 H         1 MOL1        0.0498
     33  H          -1.0875   -0.3367   -1.6329 H         1 MOL1        0.0474
     34  H          -0.2535    0.9661   -0.4264 H         1 MOL1        0.0474
     35  H          -2.7759    1.0452   -0.2581 H         1 MOL1        0.0568
     36  H          -1.9593    0.4058    1.4004 H         1 MOL1        0.0568
     37  H          -4.9272   -1.8948    0.9374 H         1 MOL1        0.0598
     38  H          -4.0497   -0.6028    2.0797 H         1 MOL1        0.0598
     39  H          -4.5078    1.7169    1.5881 H         1 MOL1        0.0908
     40  H          -5.9635    3.3953    0.7520 H         1 MOL1        0.0906
     41  H          -7.5548    2.8554   -0.9285 H         1 MOL1        0.0906
     42  H          -7.6913    0.6365   -1.7671 H         1 MOL1        0.0906
     43  H          -6.2295   -1.0404   -0.9353 H         1 MOL1        0.0908
     44  H          -2.1090   -2.0385    1.9321 H         1 MOL1        0.0568
     45  H          -2.9958   -3.2223    0.6526 H         1 MOL1        0.0568
     46  H          -0.4132   -3.4100    0.6023 H         1 MOL1        0.0474
     47  H          -1.1519   -2.7413   -1.0860 H         1 MOL1        0.0474
@<TRIPOS>BOND
     1      1      2 1 
     2      1     12 1 
     3      2      3 1 
     4      3      4 ar
     5      4      5 ar
     6      5      6 ar
     7      6      7 ar
     8      7      8 ar
     9      8      9 ar
    10      9     10 ar
    11     10     11 ar
    12     11      3 ar
    13     11      6 ar
    14     12     13 1 
    15     13     14 1 
    16     14     15 1 
    17     15     16 1 
    18     15     23 1 
    19     16     17 1 
    20     17     18 ar
    21     18     19 ar
    22     19     20 ar
    23     20     21 ar
    24     21     22 ar
    25     22     17 ar
    26     23     24 1 
    27     24     12 1 
    28      1     25 1 
    29      1     26 1 
    30      2     27 1 
    31      7     28 1 
    32      8     29 1 
    33      9     30 1 
    34     10     31 1 
    35     12     32 1 
    36     13     33 1 
    37     13     34 1 
    38     14     35 1 
    39     14     36 1 
    40     16     37 1 
    41     16     38 1 
    42     18     39 1 
    43     19     40 1 
    44     20     41 1 
    45     21     42 1 
    46     22     43 1 
    47     23     44 1 
    48     23     45 1 
    49     24     46 1 
    50     24     47 1 
@<TRIPOS>SUBSTRUCTURE
     1 MOL1         1 MOLECULE          1 A
