# Molecule written by the XED library from Cresset
@<TRIPOS>MOLECULE
CHEMBL3819646
    48     51      1
SMALL
USER_CHARGES
@<TRIPOS>ATOM
      1 O           -6.4563   -3.3753    0.2177 O.3       1 MOL1       -0.3814
      2 C           -5.8006   -2.1891    0.2027 C.ar      1 MOL1        0.0670
      3 C           -6.5035   -1.0073    0.4018 C.ar      1 MOL1       -0.0819
      4 C           -5.8550    0.2009    0.3826 C.ar      1 MOL1       -0.0567
      5 C           -4.4861    0.2041    0.1589 C.ar      1 MOL1       -0.0065
      6 C           -3.5386    1.3017    0.0730 C.2       1 MOL1        0.1997
      7 O           -3.8930    2.4623    0.2246 O.2       1 MOL1       -0.3897
      8 C           -2.1935    0.8360   -0.2085 C.2       1 MOL1       -0.0313
      9 C           -1.2296    1.7383   -0.3955 C.2       1 MOL1       -0.0522
     10 C            0.2443    1.5800   -0.7054 C.3       1 MOL1       -0.0233
     11 C            0.8133    0.1507   -0.6020 C.3       1 MOL1       -0.0701
     12 C            2.3109    0.1738   -0.9773 C.3       1 MOL1       -0.0455
     13 N            3.0976    1.0890   -0.1220 N.3       1 MOL1       -0.2520
     14 C            4.5119    1.1096   -0.5489 C.3       1 MOL1       -0.0032
     15 C            5.3148   -0.1297   -0.1799 C.ar      1 MOL1       -0.0509
     16 C            5.4449   -1.1744   -1.0687 C.ar      1 MOL1       -0.0846
     17 C            6.1829   -2.2862   -0.7317 C.ar      1 MOL1       -0.0900
     18 C            6.7982   -2.3575    0.4969 C.ar      1 MOL1       -0.0906
     19 C            6.6733   -1.3163    1.3880 C.ar      1 MOL1       -0.0900
     20 C            5.9328   -0.2064    1.0496 C.ar      1 MOL1       -0.0846
     21 C            2.5404    2.4528   -0.1919 C.3       1 MOL1       -0.0455
     22 C            1.0597    2.4859    0.2356 C.3       1 MOL1       -0.0701
     23 C           -2.2987   -0.6808   -0.2595 C.3       1 MOL1       -0.0039
     24 C           -3.7791   -0.9634   -0.0360 C.ar      1 MOL1       -0.0262
     25 C           -4.4303   -2.1670   -0.0152 C.ar      1 MOL1       -0.0774
     26  H          -7.4419   -3.2508    0.3768 H         1 MOL1        0.3295
     27  H          -7.4908   -1.0379    0.5577 H         1 MOL1        0.0924
     28  H          -6.3556    1.0553    0.5229 H         1 MOL1        0.0910
     29  H          -1.5284    2.6785   -0.3103 H         1 MOL1        0.0887
     30  H           0.4252    1.9863   -1.8201 H         1 MOL1        0.0514
     31  H           0.6836   -0.2565    0.5195 H         1 MOL1        0.0476
     32  H           0.2484   -0.5769   -1.3687 H         1 MOL1        0.0476
     33  H           2.7431   -0.9400   -0.8706 H         1 MOL1        0.0568
     34  H           2.3950    0.5201   -2.1236 H         1 MOL1        0.0568
     35  H           5.0685    2.0286   -0.0110 H         1 MOL1        0.0598
     36  H           4.5869    1.3072   -1.7311 H         1 MOL1        0.0598
     37  H           5.0015   -1.1249   -1.9637 H         1 MOL1        0.0908
     38  H           6.2726   -3.0418   -1.3805 H         1 MOL1        0.0906
     39  H           7.3358   -3.1647    0.7414 H         1 MOL1        0.0906
     40  H           7.1214   -1.3655    2.2807 H         1 MOL1        0.0906
     41  H           5.8452    0.5498    1.6981 H         1 MOL1        0.0908
     42  H           3.1486    3.1861    0.5380 H         1 MOL1        0.0568
     43  H           2.6303    2.8557   -1.3187 H         1 MOL1        0.0568
     44  H           0.9562    2.0917    1.3643 H         1 MOL1        0.0476
     45  H           0.6532    3.6128    0.1663 H         1 MOL1        0.0476
     46  H          -1.9741   -1.1045   -1.3338 H         1 MOL1        0.0524
     47  H          -1.6460   -1.1790    0.6157 H         1 MOL1        0.0524
     48  H          -3.9255   -3.0185   -0.1574 H         1 MOL1        0.0926
@<TRIPOS>BOND
     1      1      2 1 
     2      2      3 ar
     3      3      4 ar
     4      4      5 ar
     5      5      6 1 
     6      6      7 2 
     7      6      8 1 
     8      8      9 2 
     9      8     23 1 
    10      9     10 1 
    11     10     11 1 
    12     11     12 1 
    13     12     13 1 
    14     13     14 1 
    15     13     21 1 
    16     14     15 1 
    17     15     16 ar
    18     16     17 ar
    19     17     18 ar
    20     18     19 ar
    21     19     20 ar
    22     20     15 ar
    23     21     22 1 
    24     22     10 1 
    25     23     24 1 
    26     24      5 ar
    27     24     25 ar
    28     25      2 ar
    29      1     26 1 
    30      3     27 1 
    31      4     28 1 
    32      9     29 1 
    33     10     30 1 
    34     11     31 1 
    35     11     32 1 
    36     12     33 1 
    37     12     34 1 
    38     14     35 1 
    39     14     36 1 
    40     16     37 1 
    41     17     38 1 
    42     18     39 1 
    43     19     40 1 
    44     20     41 1 
    45     21     42 1 
    46     21     43 1 
    47     22     44 1 
    48     22     45 1 
    49     23     46 1 
    50     23     47 1 
    51     25     48 1 
@<TRIPOS>SUBSTRUCTURE
     1 MOL1         1 MOLECULE          1 A
