# Molecule written by the XED library from Cresset
@<TRIPOS>MOLECULE
CHEMBL3818801
    50     54      1
SMALL
USER_CHARGES
@<TRIPOS>ATOM
      1 O           -3.0250    2.7904   -0.5935 O.2       1 MOL1       -0.3896
      2 C           -2.7925    1.6026   -0.4173 C.2       1 MOL1        0.1999
      3 C           -1.4804    0.9840   -0.3389 C.2       1 MOL1       -0.0313
      4 C           -0.3865    1.7394   -0.4600 C.2       1 MOL1       -0.0523
      5 C            1.0833    1.3815   -0.3265 C.3       1 MOL1       -0.0233
      6 C            1.3508    0.0441    0.3971 C.3       1 MOL1       -0.0701
      7 C            2.8642   -0.2172    0.6021 C.3       1 MOL1       -0.0455
      8 N            3.7198    0.9743    0.4167 N.3       1 MOL1       -0.2520
      9 C            5.0754    0.7374    0.9561 C.3       1 MOL1       -0.0032
     10 C            5.8553   -0.4155    0.3339 C.ar      1 MOL1       -0.0509
     11 C            5.7931   -1.6628    0.9143 C.ar      1 MOL1       -0.0846
     12 C            6.4794   -2.7223    0.3670 C.ar      1 MOL1       -0.0900
     13 C            7.2381   -2.5398   -0.7655 C.ar      1 MOL1       -0.0906
     14 C            7.3114   -1.2941   -1.3456 C.ar      1 MOL1       -0.0900
     15 C            6.6227   -0.2355   -0.7966 C.ar      1 MOL1       -0.0846
     16 C            3.1142    2.1396    1.0844 C.3       1 MOL1       -0.0455
     17 C            1.7554    2.5333    0.4544 C.3       1 MOL1       -0.0701
     18 C           -1.7470   -0.4956   -0.1189 C.3       1 MOL1       -0.0043
     19 C           -3.2631   -0.6062   -0.0786 C.ar      1 MOL1       -0.0408
     20 C           -4.0096   -1.7477    0.0933 C.ar      1 MOL1       -0.0740
     21 C           -5.3790   -1.5833    0.0813 C.ar      1 MOL1        0.0859
     22 O           -6.2980   -2.5186    0.2190 O.3       1 MOL1       -0.1737
     23 C           -7.6211   -1.9101    0.1554 C.3       1 MOL1        0.0593
     24 O           -7.2931   -0.5041   -0.0505 O.3       1 MOL1       -0.1768
     25 C           -5.9734   -0.3647   -0.0847 C.ar      1 MOL1        0.0749
     26 C           -5.2502    0.7891   -0.2576 C.ar      1 MOL1       -0.0541
     27 C           -3.8649    0.6305   -0.2534 C.ar      1 MOL1       -0.0047
     28  H          -0.5644    2.6984   -0.6327 H         1 MOL1        0.0887
     29  H           1.5874    1.3432   -1.4163 H         1 MOL1        0.0514
     30  H           0.8144    0.1055    1.4699 H         1 MOL1        0.0476
     31  H           0.8835   -0.8652   -0.2283 H         1 MOL1        0.0476
     32  H           3.2339   -1.0443   -0.1865 H         1 MOL1        0.0568
     33  H           3.0104   -0.6675    1.7061 H         1 MOL1        0.0568
     34  H           5.7239    1.7329    0.7826 H         1 MOL1        0.0598
     35  H           5.0014    0.5752    2.1442 H         1 MOL1        0.0598
     36  H           5.2416   -1.8004    1.7374 H         1 MOL1        0.0908
     37  H           6.4249   -3.6259    0.7920 H         1 MOL1        0.0906
     38  H           7.7350   -3.3101   -1.1661 H         1 MOL1        0.0906
     39  H           7.8644   -1.1580   -2.1677 H         1 MOL1        0.0906
     40  H           6.6779    0.6682   -1.2210 H         1 MOL1        0.0908
     41  H           3.8441    3.0916    1.0305 H         1 MOL1        0.0568
     42  H           2.9475    1.8546    2.2391 H         1 MOL1        0.0568
     43  H           1.9052    3.4554   -0.3009 H         1 MOL1        0.0476
     44  H           1.0090    2.8904    1.3243 H         1 MOL1        0.0476
     45  H          -1.3337   -1.1233   -1.0539 H         1 MOL1        0.0524
     46  H          -1.2666   -0.8913    0.9062 H         1 MOL1        0.0524
     47  H          -3.5852   -2.6446    0.2167 H         1 MOL1        0.0926
     48  H          -8.2083   -2.0706    1.1895 H         1 MOL1        0.0806
     49  H          -8.2471   -2.3501   -0.7688 H         1 MOL1        0.0806
     50  H          -5.6863    1.6806   -0.3801 H         1 MOL1        0.0928
@<TRIPOS>BOND
     1      1      2 2 
     2      2      3 1 
     3      3      4 2 
     4      3     18 1 
     5      4      5 1 
     6      5      6 1 
     7      6      7 1 
     8      7      8 1 
     9      8      9 1 
    10      8     16 1 
    11      9     10 1 
    12     10     11 ar
    13     11     12 ar
    14     12     13 ar
    15     13     14 ar
    16     14     15 ar
    17     15     10 ar
    18     16     17 1 
    19     17      5 1 
    20     18     19 1 
    21     19     20 ar
    22     20     21 ar
    23     21     22 1 
    24     22     23 1 
    25     23     24 1 
    26     24     25 1 
    27     25     21 ar
    28     25     26 ar
    29     26     27 ar
    30     27      2 1 
    31     27     19 ar
    32      4     28 1 
    33      5     29 1 
    34      6     30 1 
    35      6     31 1 
    36      7     32 1 
    37      7     33 1 
    38      9     34 1 
    39      9     35 1 
    40     11     36 1 
    41     12     37 1 
    42     13     38 1 
    43     14     39 1 
    44     15     40 1 
    45     16     41 1 
    46     16     42 1 
    47     17     43 1 
    48     17     44 1 
    49     18     45 1 
    50     18     46 1 
    51     20     47 1 
    52     23     48 1 
    53     23     49 1 
    54     26     50 1 
@<TRIPOS>SUBSTRUCTURE
     1 MOL1         1 MOLECULE          1 A
