# Molecule written by the XED library from Cresset
@<TRIPOS>MOLECULE
CHEMBL92958
    49     52      1
SMALL
USER_CHARGES
@<TRIPOS>ATOM
      1 C            1.2600   -1.3519    0.0485 C.3       1 MOL1       -0.0807
      2 C            2.0943   -0.2118    0.6645 C.3       1 MOL1       -0.0354
      3 C            3.5814   -0.4197    0.4453 C.ar      1 MOL1        0.0118
      4 N            4.1313   -1.6034    0.3938 N.2       1 MOL1       -0.2622
      5 N            5.4778   -1.5298    0.1739 N.pl3     1 MOL1       -0.0845
      6 C            5.7099   -0.1880    0.0957 C.ar      1 MOL1        0.0777
      7 C            6.9545    0.3934   -0.1281 C.ar      1 MOL1       -0.0925
      8 C            7.0129    1.7558   -0.1758 C.ar      1 MOL1       -0.0878
      9 C            5.8618    2.5380   -0.0058 C.ar      1 MOL1       -0.1118
     10 C            4.6426    1.9646    0.2116 C.ar      1 MOL1       -0.0760
     11 C            4.5773    0.5692    0.2600 C.ar      1 MOL1       -0.0212
     12 C           -0.2604   -1.0961    0.1353 C.3       1 MOL1       -0.0563
     13 C           -0.7376   -0.1791   -1.0109 C.3       1 MOL1       -0.0743
     14 C           -2.2675    0.0515   -0.9548 C.3       1 MOL1       -0.0462
     15 N           -3.0302   -1.0375   -0.3011 N.3       1 MOL1       -0.2521
     16 C           -4.4388   -1.0377   -0.7550 C.3       1 MOL1       -0.0032
     17 C           -5.2989    0.1202   -0.2609 C.ar      1 MOL1       -0.0509
     18 C           -5.1708    1.3821   -0.8012 C.ar      1 MOL1       -0.0846
     19 C           -5.9572    2.4197   -0.3539 C.ar      1 MOL1       -0.0900
     20 C           -6.8860    2.2008    0.6367 C.ar      1 MOL1       -0.0906
     21 C           -7.0246    0.9424    1.1759 C.ar      1 MOL1       -0.0900
     22 C           -6.2332   -0.0916    0.7297 C.ar      1 MOL1       -0.0846
     23 C           -2.4036   -2.3402   -0.5899 C.3       1 MOL1       -0.0462
     24 C           -1.0111   -2.4507    0.0769 C.3       1 MOL1       -0.0743
     25 H            6.0550   -2.1909    0.0987 H         1 MOL1        0.2094
     26  H           1.5302   -2.3524    0.6546 H         1 MOL1        0.0465
     27  H           1.5830   -1.5035   -1.0970 H         1 MOL1        0.0465
     28  H           1.8721   -0.1581    1.8428 H         1 MOL1        0.0503
     29  H           1.7999    0.8385    0.1666 H         1 MOL1        0.0503
     30  H           7.7743   -0.1665   -0.2499 H         1 MOL1        0.0919
     31  H           7.8928    2.2038   -0.3345 H         1 MOL1        0.0906
     32  H           5.9365    3.5347   -0.0457 H         1 MOL1        0.0906
     33  H           3.8234    2.5253    0.3317 H         1 MOL1        0.0910
     34  H          -0.5071   -0.5565    1.1790 H         1 MOL1        0.0488
     35  H          -0.4699   -0.7243   -2.0458 H         1 MOL1        0.0474
     36  H          -0.1799    0.8821   -0.9794 H         1 MOL1        0.0474
     37  H          -2.6329    0.2188   -2.0857 H         1 MOL1        0.0568
     38  H          -2.4932    1.0618   -0.3471 H         1 MOL1        0.0568
     39  H          -4.9698   -2.0405   -0.3600 H         1 MOL1        0.0598
     40  H          -4.4898   -1.0727   -1.9533 H         1 MOL1        0.0598
     41  H          -4.4993    1.5458   -1.5240 H         1 MOL1        0.0908
     42  H          -5.8537    3.3330   -0.7489 H         1 MOL1        0.0906
     43  H          -7.4592    2.9529    0.9628 H         1 MOL1        0.0906
     44  H          -7.7024    0.7779    1.8925 H         1 MOL1        0.0906
     45  H          -6.3394   -1.0029    1.1269 H         1 MOL1        0.0908
     46  H          -2.2881   -2.4539   -1.7804 H         1 MOL1        0.0568
     47  H          -3.0775   -3.2480   -0.1847 H         1 MOL1        0.0568
     48  H          -0.3720   -3.2593   -0.5399 H         1 MOL1        0.0474
     49  H          -1.1369   -2.8571    1.2004 H         1 MOL1        0.0474
@<TRIPOS>BOND
     1      1      2 1 
     2      1     12 1 
     3      2      3 1 
     4      3      4 ar
     5      4      5 ar
     6      5      6 ar
     7      6      7 ar
     8      7      8 ar
     9      8      9 ar
    10      9     10 ar
    11     10     11 ar
    12     11      3 ar
    13     11      6 ar
    14     12     13 1 
    15     13     14 1 
    16     14     15 1 
    17     15     16 1 
    18     15     23 1 
    19     16     17 1 
    20     17     18 ar
    21     18     19 ar
    22     19     20 ar
    23     20     21 ar
    24     21     22 ar
    25     22     17 ar
    26     23     24 1 
    27     24     12 1 
    28      1     26 1 
    29      1     27 1 
    30      2     28 1 
    31      2     29 1 
    32      5     25 1 
    33      7     30 1 
    34      8     31 1 
    35      9     32 1 
    36     10     33 1 
    37     12     34 1 
    38     13     35 1 
    39     13     36 1 
    40     14     37 1 
    41     14     38 1 
    42     16     39 1 
    43     16     40 1 
    44     18     41 1 
    45     19     42 1 
    46     20     43 1 
    47     21     44 1 
    48     22     45 1 
    49     23     46 1 
    50     23     47 1 
    51     24     48 1 
    52     24     49 1 
@<TRIPOS>SUBSTRUCTURE
     1 MOL1         1 MOLECULE          1 A
