# Molecule written by the XED library from Cresset
@<TRIPOS>MOLECULE
CHEMBL3819220
    51     54      1
SMALL
USER_CHARGES
@<TRIPOS>ATOM
      1 C           -8.8713    0.8482   -0.3060 C.3       1 MOL1       -0.0471
      2 O           -7.8508   -0.1698   -0.3624 O.3       1 MOL1       -0.2039
      3 C           -6.5668    0.1936   -0.2386 C.ar      1 MOL1        0.0640
      4 C           -6.1781    1.5227   -0.0917 C.ar      1 MOL1       -0.0692
      5 C           -4.8500    1.8717    0.0400 C.ar      1 MOL1       -0.0805
      6 C           -3.8973    0.8845    0.0313 C.ar      1 MOL1       -0.0447
      7 C           -2.3861    1.0076    0.1746 C.3       1 MOL1       -0.0045
      8 C           -1.8848   -0.4295    0.1767 C.2       1 MOL1       -0.0313
      9 C           -0.7323   -1.0469    0.4412 C.2       1 MOL1       -0.0507
     10 C            0.6399   -0.5058    0.7868 C.3       1 MOL1       -0.0232
     11 C            1.7257   -1.2699    0.0059 C.3       1 MOL1       -0.0701
     12 C            3.1131   -0.8458    0.5312 C.3       1 MOL1       -0.0455
     13 N            3.3541    0.6046    0.3754 N.3       1 MOL1       -0.2520
     14 C            4.6573    0.9785    0.9626 C.3       1 MOL1       -0.0032
     15 C            5.9048    0.4366    0.2768 C.ar      1 MOL1       -0.0509
     16 C            6.4572   -0.7573    0.6863 C.ar      1 MOL1       -0.0846
     17 C            7.5936   -1.2424    0.0807 C.ar      1 MOL1       -0.0900
     18 C            8.1866   -0.5319   -0.9368 C.ar      1 MOL1       -0.0906
     19 C            7.6410    0.6626   -1.3474 C.ar      1 MOL1       -0.0900
     20 C            6.5023    1.1447   -0.7428 C.ar      1 MOL1       -0.0846
     21 C            2.2813    1.3749    1.0362 C.3       1 MOL1       -0.0455
     22 C            0.8692    0.9983    0.5427 C.3       1 MOL1       -0.0701
     23 C           -3.0626   -1.2375   -0.0713 C.2       1 MOL1        0.2049
     24 O           -3.0964   -2.4508   -0.2122 O.2       1 MOL1       -0.3843
     25 C           -4.2760   -0.4293   -0.1177 C.ar      1 MOL1        0.0073
     26 C           -5.6018   -0.7944   -0.2560 C.ar      1 MOL1       -0.0566
     27  H          -9.9490    0.3305   -0.4109 H         1 MOL1        0.0618
     28  H          -8.7163    1.6282   -1.2052 H         1 MOL1        0.0618
     29  H          -8.8132    1.4274    0.7436 H         1 MOL1        0.0618
     30  H          -6.8730    2.2417   -0.0785 H         1 MOL1        0.0924
     31  H          -4.5856    2.8305    0.1442 H         1 MOL1        0.0908
     32  H          -2.1331    1.5681    1.2039 H         1 MOL1        0.0524
     33  H          -1.9436    1.6078   -0.7657 H         1 MOL1        0.0524
     34  H          -0.7833   -2.0344    0.3991 H         1 MOL1        0.0887
     35  H           0.8231   -0.7442    1.9485 H         1 MOL1        0.0514
     36  H           1.6389   -1.0106   -1.1621 H         1 MOL1        0.0476
     37  H           1.5888   -2.4516    0.1639 H         1 MOL1        0.0476
     38  H           3.9430   -1.4503   -0.0892 H         1 MOL1        0.0568
     39  H           3.1900   -1.1527    1.6887 H         1 MOL1        0.0568
     40  H           4.7560    2.1751    0.9371 H         1 MOL1        0.0598
     41  H           4.6823    0.6512    2.1168 H         1 MOL1        0.0598
     42  H           6.0296   -1.2741    1.4279 H         1 MOL1        0.0908
     43  H           7.9886   -2.1109    0.3819 H         1 MOL1        0.0906
     44  H           9.0137   -0.8818   -1.3766 H         1 MOL1        0.0906
     45  H           8.0727    1.1814   -2.0851 H         1 MOL1        0.0906
     46  H           6.1096    2.0140   -1.0418 H         1 MOL1        0.0908
     47  H           2.3224    1.1752    2.2188 H         1 MOL1        0.0568
     48  H           2.4393    2.5474    0.8354 H         1 MOL1        0.0568
     49  H           0.7663    1.2438   -0.6283 H         1 MOL1        0.0476
     50  H           0.0853    1.6511    1.1702 H         1 MOL1        0.0476
     51  H          -5.8544   -1.7571   -0.3595 H         1 MOL1        0.0928
@<TRIPOS>BOND
     1      1      2 1 
     2      2      3 1 
     3      3      4 ar
     4      4      5 ar
     5      5      6 ar
     6      6      7 1 
     7      7      8 1 
     8      8      9 2 
     9      8     23 1 
    10      9     10 1 
    11     10     11 1 
    12     11     12 1 
    13     12     13 1 
    14     13     14 1 
    15     13     21 1 
    16     14     15 1 
    17     15     16 ar
    18     16     17 ar
    19     17     18 ar
    20     18     19 ar
    21     19     20 ar
    22     20     15 ar
    23     21     22 1 
    24     22     10 1 
    25     23     24 2 
    26     23     25 1 
    27     25      6 ar
    28     25     26 ar
    29     26      3 ar
    30      1     27 1 
    31      1     28 1 
    32      1     29 1 
    33      4     30 1 
    34      5     31 1 
    35      7     32 1 
    36      7     33 1 
    37      9     34 1 
    38     10     35 1 
    39     11     36 1 
    40     11     37 1 
    41     12     38 1 
    42     12     39 1 
    43     14     40 1 
    44     14     41 1 
    45     16     42 1 
    46     17     43 1 
    47     18     44 1 
    48     19     45 1 
    49     20     46 1 
    50     21     47 1 
    51     21     48 1 
    52     22     49 1 
    53     22     50 1 
    54     26     51 1 
@<TRIPOS>SUBSTRUCTURE
     1 MOL1         1 MOLECULE          1 A
