# Molecule written by the XED library from Cresset
@<TRIPOS>MOLECULE
CHEMBL1720480
    53     56      1
SMALL
USER_CHARGES
@<TRIPOS>ATOM
      1 O           -1.3519    1.6326   -0.7043 O.2       1 MOL1       -0.4200
      2 C           -1.4793    0.5104   -0.2147 C.2       1 MOL1        0.3045
      3 N           -0.4313   -0.2406    0.1936 N.am      1 MOL1       -0.3936
      4 C            0.9392    0.1504   -0.1725 C.3       1 MOL1        0.0961
      5 C            1.9398   -1.0096   -0.0132 C.3       1 MOL1       -0.0551
      6 C            3.2981   -0.5770   -0.6043 C.3       1 MOL1       -0.0429
      7 N            3.8448    0.6341    0.0474 N.3       1 MOL1       -0.2519
      8 C            5.1104    1.0419   -0.5988 C.3       1 MOL1       -0.0032
      9 C            6.3323    0.2214   -0.2074 C.ar      1 MOL1       -0.0509
     10 C            6.6521   -0.9439   -0.8686 C.ar      1 MOL1       -0.0846
     11 C            7.7641   -1.6696   -0.5035 C.ar      1 MOL1       -0.0900
     12 C            8.5680   -1.2298    0.5223 C.ar      1 MOL1       -0.0906
     13 C            8.2569   -0.0641    1.1836 C.ar      1 MOL1       -0.0900
     14 C            7.1427    0.6571    0.8187 C.ar      1 MOL1       -0.0846
     15 C            2.8710    1.7403   -0.0273 C.3       1 MOL1       -0.0429
     16 C            1.5082    1.3607    0.5898 C.3       1 MOL1       -0.0551
     17 C           -2.8645   -0.0156   -0.1160 C.ar      1 MOL1       -0.0066
     18 C           -3.1334   -1.3524    0.1385 C.ar      1 MOL1       -0.0711
     19 C           -4.4245   -1.8161    0.1767 C.ar      1 MOL1       -0.0788
     20 C           -5.4978   -0.9681   -0.0212 C.ar      1 MOL1        0.0816
     21 O           -6.7253   -1.5012   -0.0136 O.3       1 MOL1       -0.1957
     22 C           -7.7111   -0.9782    0.9047 C.3       1 MOL1       -0.0218
     23 C           -8.3301    0.3432    0.4222 C.3       1 MOL1       -0.0447
     24 C           -7.2722    1.4569    0.4757 C.3       1 MOL1       -0.0218
     25 O           -6.2294    1.2794   -0.5084 O.3       1 MOL1       -0.1987
     26 C           -5.2509    0.3881   -0.2668 C.ar      1 MOL1        0.0723
     27 C           -3.9482    0.8332   -0.3158 C.ar      1 MOL1       -0.0534
     28  H          -0.5616   -0.9754    0.6567 H         1 MOL1        0.2041
     29  H           0.9051    0.4388   -1.3362 H         1 MOL1        0.0615
     30  H           1.5348   -1.9760   -0.5975 H         1 MOL1        0.0487
     31  H           2.0682   -1.2768    1.1500 H         1 MOL1        0.0487
     32  H           4.0660   -1.4874   -0.4680 H         1 MOL1        0.0568
     33  H           3.1441   -0.3735   -1.7772 H         1 MOL1        0.0568
     34  H           4.9979    1.0439   -1.7934 H         1 MOL1        0.0598
     35  H           5.3664    2.1711   -0.2783 H         1 MOL1        0.0598
     36  H           6.0727   -1.2671   -1.6167 H         1 MOL1        0.0908
     37  H           7.9870   -2.5172   -0.9851 H         1 MOL1        0.0906
     38  H           9.3757   -1.7566    0.7859 H         1 MOL1        0.0906
     39  H           8.8403    0.2586    1.9287 H         1 MOL1        0.0906
     40  H           6.9204    1.5043    1.3004 H         1 MOL1        0.0908
     41  H           3.2971    2.6895    0.5702 H         1 MOL1        0.0568
     42  H           2.7066    2.0446   -1.1766 H         1 MOL1        0.0568
     43  H           0.7578    2.2930    0.5000 H         1 MOL1        0.0487
     44  H           1.6605    1.0747    1.7447 H         1 MOL1        0.0487
     45  H          -2.3814   -1.9938    0.2839 H         1 MOL1        0.0910
     46  H          -4.5895   -2.7885    0.3464 H         1 MOL1        0.0924
     47  H          -8.5994   -1.7819    0.9758 H         1 MOL1        0.0643
     48  H          -7.2430   -0.8334    2.0009 H         1 MOL1        0.0643
     49  H          -8.7433    0.2166   -0.6976 H         1 MOL1        0.0498
     50  H          -9.2382    0.6353    1.1504 H         1 MOL1        0.0498
     51  H          -7.8277    2.4921    0.2314 H         1 MOL1        0.0643
     52  H          -6.8115    1.5255    1.5821 H         1 MOL1        0.0643
     53  H          -3.7721    1.7993   -0.5084 H         1 MOL1        0.0928
@<TRIPOS>BOND
     1      1      2 2 
     2      2      3 am
     3      2     17 1 
     4      3      4 1 
     5      4      5 1 
     6      5      6 1 
     7      6      7 1 
     8      7      8 1 
     9      7     15 1 
    10      8      9 1 
    11      9     10 ar
    12     10     11 ar
    13     11     12 ar
    14     12     13 ar
    15     13     14 ar
    16     14      9 ar
    17     15     16 1 
    18     16      4 1 
    19     17     18 ar
    20     18     19 ar
    21     19     20 ar
    22     20     21 1 
    23     21     22 1 
    24     22     23 1 
    25     23     24 1 
    26     24     25 1 
    27     25     26 1 
    28     26     20 ar
    29     26     27 ar
    30     27     17 ar
    31      3     28 1 
    32      4     29 1 
    33      5     30 1 
    34      5     31 1 
    35      6     32 1 
    36      6     33 1 
    37      8     34 1 
    38      8     35 1 
    39     10     36 1 
    40     11     37 1 
    41     12     38 1 
    42     13     39 1 
    43     14     40 1 
    44     15     41 1 
    45     15     42 1 
    46     16     43 1 
    47     16     44 1 
    48     18     45 1 
    49     19     46 1 
    50     22     47 1 
    51     22     48 1 
    52     23     49 1 
    53     23     50 1 
    54     24     51 1 
    55     24     52 1 
    56     27     53 1 
@<TRIPOS>SUBSTRUCTURE
     1 MOL1         1 MOLECULE          1 A
