# Molecule written by the XED library from Cresset
@<TRIPOS>MOLECULE
CHEMBL188338
    51     53      1
SMALL
USER_CHARGES
@<TRIPOS>ATOM
      1 C            7.0457   -1.1741    0.3024 C.3       1 MOL1       -0.0471
      2 O            6.4335    0.1235    0.1585 O.3       1 MOL1       -0.2030
      3 C            5.0929    0.2062    0.0738 C.ar      1 MOL1        0.0675
      4 C            4.2879   -0.9137    0.1450 C.ar      1 MOL1       -0.0629
      5 C            2.9100   -0.7778    0.0489 C.ar      1 MOL1       -0.0209
      6 C            1.8897   -1.7829    0.1039 C.ar      1 MOL1       -0.0199
      7 C            0.6476   -1.2946   -0.0385 C.ar      1 MOL1        0.0513
      8 S            0.6050    0.4866   -0.2446 S.3       1 MOL1       -0.1190
      9 C            2.3791    0.4813   -0.1233 C.ar      1 MOL1        0.0427
     10 C            3.1508    1.6126   -0.1931 C.ar      1 MOL1       -0.0632
     11 C            4.5254    1.4767   -0.0912 C.ar      1 MOL1        0.0822
     12 O            5.3461    2.5345   -0.1462 O.3       1 MOL1       -0.1990
     13 C            4.7776    3.8491   -0.3128 C.3       1 MOL1       -0.0471
     14 C           -0.6420   -1.9910   -0.0220 C.2       1 MOL1        0.1805
     15 O           -0.5594   -3.1145    0.4487 O.2       1 MOL1       -0.3824
     16 C           -2.0298   -1.5392   -0.4808 C.3       1 MOL1        0.0053
     17 C           -3.1180   -2.1752    0.4218 C.3       1 MOL1       -0.0768
     18 C           -4.5792   -1.8887    0.0121 C.3       1 MOL1       -0.0789
     19 C           -5.0010   -0.4280    0.3106 C.3       1 MOL1       -0.0523
     20 N           -4.7724    0.5808   -0.8004 N.4       1 MOL1       -0.1511
     21 C           -5.8952    0.4968   -1.8067 C.3       1 MOL1       -0.0785
     22 C           -4.7598    1.9844   -0.2271 C.3       1 MOL1        0.0198
     23 C           -5.9135    2.3637    0.6014 C.1       1 MOL1        0.3820
     24 N           -6.8036    2.6595    1.2423 N.1       1 MOL1       -0.4733
     25 C           -3.4693    0.3385   -1.5366 C.3       1 MOL1       -0.0509
     26 C           -2.2380   -0.0178   -0.6656 C.3       1 MOL1       -0.0668
     27  H           8.2383   -1.0463    0.3403 H         1 MOL1        0.0618
     28  H           6.7497   -1.8661   -0.6324 H         1 MOL1        0.0618
     29  H           6.6692   -1.6865    1.3201 H         1 MOL1        0.0618
     30  H           4.6914   -1.8204    0.2648 H         1 MOL1        0.0928
     31  H           2.0845   -2.7548    0.2367 H         1 MOL1        0.0929
     32  H           2.7283    2.5105   -0.3142 H         1 MOL1        0.0943
     33  H           4.0379    4.0883    0.6016 H         1 MOL1        0.0618
     34  H           4.1666    3.8938   -1.3447 H         1 MOL1        0.0618
     35  H           5.6585    4.6635   -0.3359 H         1 MOL1        0.0618
     36  H          -2.1193   -1.9901   -1.5887 H         1 MOL1        0.0543
     37  H          -2.9807   -3.3664    0.3716 H         1 MOL1        0.0465
     38  H          -2.9358   -1.8332    1.5575 H         1 MOL1        0.0465
     39  H          -5.2604   -2.6132    0.6849 H         1 MOL1        0.0469
     40  H          -4.7513   -2.1869   -1.1360 H         1 MOL1        0.0469
     41  H          -6.1699   -0.4219    0.5863 H         1 MOL1        0.0544
     42  H          -4.4245   -0.0581    1.2963 H         1 MOL1        0.0544
     43  H          -6.0265   -0.6180   -2.2289 H         1 MOL1        0.0518
     44  H          -6.9312    0.8342   -1.3039 H         1 MOL1        0.0518
     45  H          -5.6683    1.2327   -2.7275 H         1 MOL1        0.0518
     46  H          -4.7081    2.7758   -1.1279 H         1 MOL1        0.0634
     47  H          -3.7836    2.1404    0.4506 H         1 MOL1        0.0634
     48  H          -3.2082    1.3286   -2.1642 H         1 MOL1        0.0544
     49  H          -3.6171   -0.5251   -2.3559 H         1 MOL1        0.0544
     50  H          -1.2854    0.3705   -1.2814 H         1 MOL1        0.0473
     51  H          -2.2499    0.5222    0.4043 H         1 MOL1        0.0473
@<TRIPOS>BOND
     1      1      2 1 
     2      2      3 1 
     3      3      4 ar
     4      4      5 ar
     5      5      6 ar
     6      6      7 ar
     7      7      8 ar
     8      7     14 1 
     9      8      9 ar
    10      9      5 ar
    11      9     10 ar
    12     10     11 ar
    13     11      3 ar
    14     11     12 1 
    15     12     13 1 
    16     14     15 2 
    17     14     16 1 
    18     16     17 1 
    19     17     18 1 
    20     18     19 1 
    21     19     20 1 
    22     20     21 1 
    23     20     22 1 
    24     20     25 1 
    25     22     23 1 
    26     23     24 3 
    27     25     26 1 
    28     26     16 1 
    29      1     27 1 
    30      1     28 1 
    31      1     29 1 
    32      4     30 1 
    33      6     31 1 
    34     10     32 1 
    35     13     33 1 
    36     13     34 1 
    37     13     35 1 
    38     16     36 1 
    39     17     37 1 
    40     17     38 1 
    41     18     39 1 
    42     18     40 1 
    43     19     41 1 
    44     19     42 1 
    45     21     43 1 
    46     21     44 1 
    47     21     45 1 
    48     22     46 1 
    49     22     47 1 
    50     25     48 1 
    51     25     49 1 
    52     26     50 1 
    53     26     51 1 
@<TRIPOS>SUBSTRUCTURE
     1 MOL1         1 MOLECULE          1 A
