# Molecule written by the XED library from Cresset
@<TRIPOS>MOLECULE
CHEMBL589536
    45     48      1
SMALL
USER_CHARGES
@<TRIPOS>ATOM
      1 O           -0.1876   -2.0175   -0.0672 O.2       1 MOL1       -0.4490
      2 C            0.0048   -0.8170   -0.2671 C.2       1 MOL1        0.4237
      3 N           -0.9851   -0.0324   -0.7536 N.am      1 MOL1       -0.3916
      4 C           -2.3327   -0.5791   -0.9591 C.3       1 MOL1        0.0823
      5 C           -3.3472    0.3480   -0.2656 C.3       1 MOL1       -0.0221
      6 N           -4.7475   -0.0210   -0.5357 N.3       1 MOL1       -0.2553
      7 C           -5.0993   -1.2990    0.0944 C.3       1 MOL1       -0.0469
      8 C           -6.6374   -1.2408    0.0964 C.3       1 MOL1       -0.0748
      9 C           -6.9995    0.2555    0.0021 C.3       1 MOL1       -0.0748
     10 C           -5.6560    1.0017   -0.0135 C.3       1 MOL1       -0.0469
     11 N            1.2331   -0.2638   -0.0454 N.am      1 MOL1       -0.0610
     12 C            2.3769   -1.0933    0.0517 C.ar      1 MOL1        0.0828
     13 C            2.3491   -2.2702    0.7807 C.ar      1 MOL1       -0.0976
     14 C            3.4631   -3.0741    0.8612 C.ar      1 MOL1       -0.0931
     15 C            4.6266   -2.7165    0.2176 C.ar      1 MOL1       -0.1139
     16 C            4.6793   -1.5484   -0.5095 C.ar      1 MOL1       -0.0740
     17 C            3.5623   -0.7527   -0.5849 C.ar      1 MOL1        0.0260
     18 S            3.6357    0.7774   -1.5162 S.3       1 MOL1       -0.1317
     19 C            2.4862    1.7678   -0.5634 C.ar      1 MOL1        0.0260
     20 C            2.6846    3.1234   -0.4627 C.ar      1 MOL1       -0.0740
     21 C            1.8178    3.8762    0.2980 C.ar      1 MOL1       -0.1139
     22 C            0.7692    3.2680    0.9514 C.ar      1 MOL1       -0.0931
     23 C            0.5767    1.9097    0.8426 C.ar      1 MOL1       -0.0976
     24 C            1.4288    1.1349    0.0734 C.ar      1 MOL1        0.0828
     25  H          -0.8246    0.8052   -0.9660 H         1 MOL1        0.2045
     26  H          -2.5682   -0.6240   -2.1351 H         1 MOL1        0.0600
     27  H          -2.4060   -1.6811   -0.4918 H         1 MOL1        0.0600
     28  H          -3.1593    1.4521   -0.6979 H         1 MOL1        0.0581
     29  H          -3.1284    0.3647    0.9143 H         1 MOL1        0.0581
     30  H          -4.7095   -1.3435    1.2293 H         1 MOL1        0.0568
     31  H          -4.6991   -2.2437   -0.5279 H         1 MOL1        0.0568
     32  H          -7.0847   -1.7365    1.0944 H         1 MOL1        0.0471
     33  H          -7.0597   -1.8247   -0.8640 H         1 MOL1        0.0471
     34  H          -7.6723    0.6065    0.9324 H         1 MOL1        0.0471
     35  H          -7.5815    0.4757   -1.0245 H         1 MOL1        0.0471
     36  H          -5.3567    1.2898    1.1131 H         1 MOL1        0.0568
     37  H          -5.6841    1.9798   -0.7082 H         1 MOL1        0.0568
     38  H           1.5091   -2.5408    1.2511 H         1 MOL1        0.0919
     39  H           3.4271   -3.9225    1.3893 H         1 MOL1        0.0906
     40  H           5.4334   -3.3042    0.2793 H         1 MOL1        0.0906
     41  H           5.5224   -1.2811   -0.9762 H         1 MOL1        0.0925
     42  H           3.4528    3.5581   -0.9327 H         1 MOL1        0.0925
     43  H           1.9522    4.8637    0.3791 H         1 MOL1        0.0906
     44  H           0.1439    3.8161    1.5069 H         1 MOL1        0.0906
     45  H          -0.1888    1.4783    1.3201 H         1 MOL1        0.0919
@<TRIPOS>BOND
     1      1      2 2 
     2      2      3 am
     3      2     11 am
     4      3      4 1 
     5      4      5 1 
     6      5      6 1 
     7      6      7 1 
     8      7      8 1 
     9      8      9 1 
    10      9     10 1 
    11     10      6 1 
    12     11     12 1 
    13     12     13 ar
    14     13     14 ar
    15     14     15 ar
    16     15     16 ar
    17     16     17 ar
    18     17     12 ar
    19     17     18 1 
    20     18     19 1 
    21     19     20 ar
    22     20     21 ar
    23     21     22 ar
    24     22     23 ar
    25     23     24 ar
    26     24     11 1 
    27     24     19 ar
    28      3     25 1 
    29      4     26 1 
    30      4     27 1 
    31      5     28 1 
    32      5     29 1 
    33      7     30 1 
    34      7     31 1 
    35      8     32 1 
    36      8     33 1 
    37      9     34 1 
    38      9     35 1 
    39     10     36 1 
    40     10     37 1 
    41     13     38 1 
    42     14     39 1 
    43     15     40 1 
    44     16     41 1 
    45     20     42 1 
    46     21     43 1 
    47     22     44 1 
    48     23     45 1 
@<TRIPOS>SUBSTRUCTURE
     1 MOL1         1 MOLECULE          1 A
