# Molecule written by the XED library from Cresset
@<TRIPOS>MOLECULE
CHEMBL3818230
    48     51      1
SMALL
USER_CHARGES
@<TRIPOS>ATOM
      1 O           -8.2466    0.0562   -0.3600 O.3       1 MOL1       -0.3846
      2 C           -6.9221    0.3503   -0.2481 C.ar      1 MOL1        0.0547
      3 C           -6.5151    1.6701   -0.1204 C.ar      1 MOL1       -0.0698
      4 C           -5.1792    1.9891    0.0077 C.ar      1 MOL1       -0.0806
      5 C           -4.2497    0.9795    0.0084 C.ar      1 MOL1       -0.0447
      6 C           -2.7360    1.0778    0.1452 C.3       1 MOL1       -0.0045
      7 C           -2.2596   -0.3673    0.1563 C.2       1 MOL1       -0.0313
      8 C           -1.1110   -0.9953    0.4151 C.2       1 MOL1       -0.0507
      9 C            0.2710   -0.4629    0.7366 C.3       1 MOL1       -0.0232
     10 C            1.3495   -1.2625   -0.0201 C.3       1 MOL1       -0.0701
     11 C            2.7425   -0.8527    0.5022 C.3       1 MOL1       -0.0455
     12 N            3.0150    0.5880    0.3184 N.3       1 MOL1       -0.2520
     13 C            4.3117    0.9507    0.9294 C.3       1 MOL1       -0.0032
     14 C            5.5666    0.3799    0.2825 C.ar      1 MOL1       -0.0509
     15 C            6.0670   -0.8419    0.6771 C.ar      1 MOL1       -0.0846
     16 C            7.2141   -1.3417    0.1041 C.ar      1 MOL1       -0.0900
     17 C            7.8697   -0.6186   -0.8654 C.ar      1 MOL1       -0.0906
     18 C            7.3737    0.6018   -1.2634 C.ar      1 MOL1       -0.0900
     19 C            6.2246    1.0982   -0.6910 C.ar      1 MOL1       -0.0846
     20 C            1.9410    1.3960    0.9335 C.3       1 MOL1       -0.0455
     21 C            0.5256    1.0277    0.4409 C.3       1 MOL1       -0.0701
     22 C           -3.4531   -1.1581   -0.0764 C.2       1 MOL1        0.2049
     23 O           -3.5114   -2.3712   -0.2092 O.2       1 MOL1       -0.3843
     24 C           -4.6540   -0.3294   -0.1247 C.ar      1 MOL1        0.0073
     25 C           -5.9893   -0.6673   -0.2556 C.ar      1 MOL1       -0.0571
     26  H          -8.8148    0.8867   -0.3245 H         1 MOL1        0.3295
     27  H          -7.1990    2.3995   -0.1186 H         1 MOL1        0.0924
     28  H          -4.8918    2.9421    0.1019 H         1 MOL1        0.0908
     29  H          -2.4691    1.6444    1.1680 H         1 MOL1        0.0524
     30  H          -2.2874    1.6597   -0.8038 H         1 MOL1        0.0524
     31  H          -1.1712   -1.9836    0.3859 H         1 MOL1        0.0887
     32  H           0.4488   -0.6631    1.9057 H         1 MOL1        0.0514
     33  H           1.2722   -1.0322   -1.1956 H         1 MOL1        0.0476
     34  H           1.1971   -2.4366    0.1727 H         1 MOL1        0.0476
     35  H           3.5657   -1.4849   -0.0991 H         1 MOL1        0.0568
     36  H           2.8113   -1.1354    1.6658 H         1 MOL1        0.0568
     37  H           4.3033    0.6422    2.0898 H         1 MOL1        0.0598
     38  H           4.4289    2.1456    0.8934 H         1 MOL1        0.0598
     39  H           5.5954   -1.3672    1.3848 H         1 MOL1        0.0908
     40  H           7.5710   -2.2292    0.3933 H         1 MOL1        0.0906
     41  H           8.7049   -0.9792   -1.2802 H         1 MOL1        0.0906
     42  H           7.8503    1.1289   -1.9671 H         1 MOL1        0.0906
     43  H           5.8685    1.9868   -0.9801 H         1 MOL1        0.0908
     44  H           1.9570    1.2374    2.1229 H         1 MOL1        0.0568
     45  H           2.1227    2.5580    0.6924 H         1 MOL1        0.0568
     46  H           0.4380    1.2288   -0.7386 H         1 MOL1        0.0476
     47  H          -0.2554    1.7196    1.0286 H         1 MOL1        0.0476
     48  H          -6.2713   -1.6222   -0.3473 H         1 MOL1        0.0928
@<TRIPOS>BOND
     1      1      2 1 
     2      2      3 ar
     3      3      4 ar
     4      4      5 ar
     5      5      6 1 
     6      6      7 1 
     7      7      8 2 
     8      7     22 1 
     9      8      9 1 
    10      9     10 1 
    11     10     11 1 
    12     11     12 1 
    13     12     13 1 
    14     12     20 1 
    15     13     14 1 
    16     14     15 ar
    17     15     16 ar
    18     16     17 ar
    19     17     18 ar
    20     18     19 ar
    21     19     14 ar
    22     20     21 1 
    23     21      9 1 
    24     22     23 2 
    25     22     24 1 
    26     24      5 ar
    27     24     25 ar
    28     25      2 ar
    29      1     26 1 
    30      3     27 1 
    31      4     28 1 
    32      6     29 1 
    33      6     30 1 
    34      8     31 1 
    35      9     32 1 
    36     10     33 1 
    37     10     34 1 
    38     11     35 1 
    39     11     36 1 
    40     13     37 1 
    41     13     38 1 
    42     15     39 1 
    43     16     40 1 
    44     17     41 1 
    45     18     42 1 
    46     19     43 1 
    47     20     44 1 
    48     20     45 1 
    49     21     46 1 
    50     21     47 1 
    51     25     48 1 
@<TRIPOS>SUBSTRUCTURE
     1 MOL1         1 MOLECULE          1 A
