# Molecule written by the XED library from Cresset
@<TRIPOS>MOLECULE
CHEMBL251077
    43     47      1
SMALL
USER_CHARGES
@<TRIPOS>ATOM
      1 C            0.6344    4.2018   -1.7356 C.3       1 MOL1       -0.0338
      2 C            1.2251    3.3882   -0.6101 C.2       1 MOL1        0.2815
      3 O            1.8230    3.8364    0.3520 O.2       1 MOL1       -0.3726
      4 O            0.9978    2.0717   -0.7805 O.3       1 MOL1       -0.1566
      5 C            1.4373    1.1959    0.2775 C.3       1 MOL1        0.0404
      6 C            2.9828    1.0509    0.2769 C.3       1 MOL1        0.0391
      7 O            3.4851    1.2679    1.5999 O.3       1 MOL1       -0.4344
      8 C            3.4771   -0.2983   -0.1942 C.2       1 MOL1       -0.0930
      9 C            2.7291   -1.2541   -0.7051 C.2       1 MOL1       -0.0778
     10 C            3.0969   -2.6564   -1.0987 C.3       1 MOL1       -0.0387
     11 C            1.9220   -3.3912   -0.4346 C.3       1 MOL1       -0.0396
     12 N            0.7739   -2.5219   -0.7463 N.3       1 MOL1       -0.2400
     13 C           -0.3235   -2.7136    0.2338 C.3       1 MOL1       -0.0031
     14 C           -1.3262   -1.5624    0.2426 C.ar      1 MOL1       -0.0599
     15 C           -2.6898   -1.7966    0.2023 C.ar      1 MOL1       -0.0750
     16 C           -3.5092   -0.6945    0.1969 C.ar      1 MOL1        0.0697
     17 O           -4.8331   -0.6630    0.1388 O.3       1 MOL1       -0.1768
     18 C           -5.2783    0.7264    0.1360 C.3       1 MOL1        0.0590
     19 O           -4.0122    1.4462    0.2105 O.3       1 MOL1       -0.1768
     20 C           -3.0161    0.5703    0.2421 C.ar      1 MOL1        0.0695
     21 C           -1.6670    0.8226    0.2977 C.ar      1 MOL1       -0.0759
     22 C           -0.8177   -0.2716    0.2891 C.ar      1 MOL1       -0.0576
     23 C            0.7084   -0.1770    0.3020 C.3       1 MOL1        0.0181
     24 C            1.2375   -1.1150   -0.8071 C.3       1 MOL1        0.0252
     25 H            1.1382    1.7511    1.2979 H         1 MOL1        0.0692
     26 H            3.4803    1.8890   -0.4240 H         1 MOL1        0.0705
     27 H            1.0513   -0.6677    1.3431 H         1 MOL1        0.0555
     28 H            0.9582   -0.6996   -1.8989 H         1 MOL1        0.0625
     29  H          -0.5558    4.0444   -1.7684 H         1 MOL1        0.0507
     30  H           0.8630    5.3636   -1.5379 H         1 MOL1        0.0507
     31  H           1.1217    3.8786   -2.7842 H         1 MOL1        0.0507
     32  H           4.4847    1.1547    1.6343 H         1 MOL1        0.3291
     33  H           4.4450   -0.4839   -0.0974 H         1 MOL1        0.0901
     34  H           4.1770   -3.0021   -0.7065 H         1 MOL1        0.0501
     35  H           3.0050   -2.7719   -2.2888 H         1 MOL1        0.0501
     36  H           1.7702   -4.5019   -0.8611 H         1 MOL1        0.0571
     37  H           2.1575   -3.4316    0.7411 H         1 MOL1        0.0571
     38  H           0.0933   -2.7988    1.3562 H         1 MOL1        0.0598
     39  H          -0.8791   -3.7455   -0.0241 H         1 MOL1        0.0598
     40  H          -3.0618   -2.7244    0.1709 H         1 MOL1        0.0926
     41  H          -5.9596    0.9629    1.0951 H         1 MOL1        0.0806
     42  H          -5.8559    0.9904   -0.8824 H         1 MOL1        0.0806
     43  H          -1.3115    1.7570    0.3305 H         1 MOL1        0.0926
@<TRIPOS>BOND
     1      1      2 1 
     2      2      3 2 
     3      2      4 1 
     4      4      5 1 
     5      5      6 1 
     6      6      7 1 
     7      6      8 1 
     8      8      9 2 
     9      9     10 1 
    10     10     11 1 
    11     11     12 1 
    12     12     13 1 
    13     13     14 1 
    14     14     15 ar
    15     15     16 ar
    16     16     17 1 
    17     17     18 1 
    18     18     19 1 
    19     19     20 1 
    20     20     16 ar
    21     20     21 ar
    22     21     22 ar
    23     22     14 ar
    24     22     23 1 
    25     23      5 1 
    26     23     24 1 
    27     24      9 1 
    28     24     12 1 
    29      1     29 1 
    30      1     30 1 
    31      1     31 1 
    32      5     25 1 
    33      6     26 1 
    34      7     32 1 
    35      8     33 1 
    36     10     34 1 
    37     10     35 1 
    38     11     36 1 
    39     11     37 1 
    40     13     38 1 
    41     13     39 1 
    42     15     40 1 
    43     18     41 1 
    44     18     42 1 
    45     21     43 1 
    46     23     27 1 
    47     24     28 1 
@<TRIPOS>SUBSTRUCTURE
     1 MOL1         1 MOLECULE          1 A
