# Molecule written by the XED library from Cresset
@<TRIPOS>MOLECULE
CHEMBL465028
    52     55      1
SMALL
USER_CHARGES
@<TRIPOS>ATOM
      1 C            5.7553   -3.6611   -0.0579 C.3       1 MOL1       -0.0471
      2 O            6.1848   -2.2846   -0.0451 O.3       1 MOL1       -0.1993
      3 C            5.2626   -1.3186    0.0276 C.ar      1 MOL1        0.0824
      4 C            3.9027   -1.6028    0.0816 C.ar      1 MOL1       -0.0742
      5 C            2.9952   -0.5792    0.1531 C.ar      1 MOL1       -0.0420
      6 C            1.4765   -0.6404    0.2324 C.3       1 MOL1       -0.0041
      7 C            1.0299    0.8144    0.1808 C.2       1 MOL1       -0.0323
      8 C           -0.1276    1.4759   -0.0208 C.2       1 MOL1       -0.0234
      9 C           -1.4423    0.8202   -0.1821 C.ar      1 MOL1       -0.0260
     10 C           -2.4857    1.5717   -0.6979 C.ar      1 MOL1       -0.0703
     11 C           -3.7257    1.0118   -0.8816 C.ar      1 MOL1       -0.0831
     12 C           -3.9547   -0.3050   -0.5439 C.ar      1 MOL1       -0.0406
     13 C           -5.3239   -0.9370   -0.7559 C.3       1 MOL1       -0.0025
     14 N           -6.3474   -0.5526    0.2354 N.3       1 MOL1       -0.2522
     15 C           -7.4975   -1.4553    0.1635 C.3       1 MOL1       -0.0465
     16 C           -8.5683   -0.6621    0.9295 C.3       1 MOL1       -0.0748
     17 C           -8.1540    0.8182    0.8017 C.3       1 MOL1       -0.0748
     18 C           -6.8383    0.8118    0.0041 C.3       1 MOL1       -0.0465
     19 C           -2.9238   -1.0564   -0.0209 C.ar      1 MOL1       -0.0831
     20 C           -1.6789   -0.5036    0.1571 C.ar      1 MOL1       -0.0703
     21 C            2.2546    1.5755    0.2246 C.2       1 MOL1        0.1921
     22 O            2.3501    2.7947    0.2757 O.2       1 MOL1       -0.3952
     23 C            3.4323    0.7233    0.1710 C.ar      1 MOL1       -0.0045
     24 C            4.7814    1.0355    0.1217 C.ar      1 MOL1       -0.0552
     25 C            5.7015    0.0089    0.0490 C.ar      1 MOL1        0.0721
     26 O            7.0256    0.2425   -0.0050 O.3       1 MOL1       -0.2025
     27 C            7.4922    1.6066    0.0106 C.3       1 MOL1       -0.0471
     28  H           5.0546   -3.8565   -1.0122 H         1 MOL1        0.0618
     29  H           5.1454   -3.9030    0.9469 H         1 MOL1        0.0618
     30  H           6.7171   -4.3760   -0.1194 H         1 MOL1        0.0618
     31  H           3.5831   -2.5497    0.0691 H         1 MOL1        0.0926
     32  H           0.9985   -1.2738   -0.6678 H         1 MOL1        0.0524
     33  H           1.1731   -1.1202    1.2897 H         1 MOL1        0.0524
     34  H          -0.0902    2.4640   -0.0843 H         1 MOL1        0.0912
     35  H          -2.3328    2.5290   -0.9435 H         1 MOL1        0.0910
     36  H          -4.4684    1.5633   -1.2616 H         1 MOL1        0.0908
     37  H          -5.1798   -2.1274   -0.6829 H         1 MOL1        0.0598
     38  H          -5.7037   -0.6954   -1.8681 H         1 MOL1        0.0598
     39  H          -7.2715   -2.5220    0.6645 H         1 MOL1        0.0568
     40  H          -7.8495   -1.5851   -0.9771 H         1 MOL1        0.0568
     41  H          -9.6561   -0.8594    0.4620 H         1 MOL1        0.0471
     42  H          -8.5554   -0.9959    2.0826 H         1 MOL1        0.0471
     43  H          -7.9563    1.2888    1.8882 H         1 MOL1        0.0471
     44  H          -8.9964    1.4588    0.2342 H         1 MOL1        0.0471
     45  H          -7.0939    0.9924   -1.1553 H         1 MOL1        0.0568
     46  H          -6.0701    1.6443    0.3997 H         1 MOL1        0.0568
     47  H          -3.0823   -2.0123    0.2265 H         1 MOL1        0.0908
     48  H          -0.9407   -1.0610    0.5342 H         1 MOL1        0.0910
     49  H           5.0790    1.9899    0.1347 H         1 MOL1        0.0928
     50  H           8.6908    1.6183   -0.0461 H         1 MOL1        0.0618
     51  H           7.0434    2.1950   -0.9339 H         1 MOL1        0.0618
     52  H           7.1354    2.1413    1.0239 H         1 MOL1        0.0618
@<TRIPOS>BOND
     1      1      2 1 
     2      2      3 1 
     3      3      4 ar
     4      4      5 ar
     5      5      6 1 
     6      6      7 1 
     7      7      8 2 
     8      7     21 1 
     9      8      9 1 
    10      9     10 ar
    11     10     11 ar
    12     11     12 ar
    13     12     13 1 
    14     12     19 ar
    15     13     14 1 
    16     14     15 1 
    17     15     16 1 
    18     16     17 1 
    19     17     18 1 
    20     18     14 1 
    21     19     20 ar
    22     20      9 ar
    23     21     22 2 
    24     21     23 1 
    25     23      5 ar
    26     23     24 ar
    27     24     25 ar
    28     25      3 ar
    29     25     26 1 
    30     26     27 1 
    31      1     28 1 
    32      1     29 1 
    33      1     30 1 
    34      4     31 1 
    35      6     32 1 
    36      6     33 1 
    37      8     34 1 
    38     10     35 1 
    39     11     36 1 
    40     13     37 1 
    41     13     38 1 
    42     15     39 1 
    43     15     40 1 
    44     16     41 1 
    45     16     42 1 
    46     17     43 1 
    47     17     44 1 
    48     18     45 1 
    49     18     46 1 
    50     19     47 1 
    51     20     48 1 
    52     24     49 1 
    53     27     50 1 
    54     27     51 1 
    55     27     52 1 
@<TRIPOS>SUBSTRUCTURE
     1 MOL1         1 MOLECULE          1 A
