# Molecule written by the XED library from Cresset
@<TRIPOS>MOLECULE
CHEMBL2312573
    45     49      1
SMALL
USER_CHARGES
@<TRIPOS>ATOM
      1 O           -7.4375    0.5324   -0.4651 O.3       1 MOL1       -0.3844
      2 C           -6.1392    0.2407   -0.1816 C.ar      1 MOL1        0.0502
      3 C           -5.2247    1.2559    0.0128 C.ar      1 MOL1       -0.0991
      4 C           -3.9137    0.9547    0.2979 C.ar      1 MOL1       -0.0767
      5 C           -3.4880   -0.3541    0.3894 C.ar      1 MOL1       -0.0556
      6 C           -2.0292   -0.6794    0.7136 C.3       1 MOL1        0.0336
      7 C           -0.9441    0.4121    0.5260 C.3       1 MOL1       -0.0138
      8 C            0.2813   -0.3307    0.0369 C.2       1 MOL1        0.0225
      9 N           -0.0664   -1.4959   -0.3911 N.2       1 MOL1       -0.2366
     10 N           -1.3908   -1.6919   -0.1403 N.pl3     1 MOL1       -0.2286
     11 C            1.7003    0.0863    0.0025 C.ar      1 MOL1        0.0020
     12 C            2.7060   -0.8996   -0.0167 C.ar      1 MOL1       -0.0099
     13 C            2.4174   -2.2868    0.0120 C.ar      1 MOL1       -0.0807
     14 C            3.3948   -3.2164    0.0019 C.ar      1 MOL1       -0.0893
     15 C            4.7508   -2.8349   -0.0360 C.ar      1 MOL1       -0.0897
     16 C            5.0852   -1.5319   -0.0608 C.ar      1 MOL1       -0.0811
     17 C            4.0738   -0.5418   -0.0486 C.ar      1 MOL1       -0.0192
     18 C            4.4501    0.7848   -0.0635 C.ar      1 MOL1       -0.0712
     19 C            3.4825    1.7682   -0.0417 C.ar      1 MOL1       -0.0192
     20 C            3.9130    3.1163   -0.0578 C.ar      1 MOL1       -0.0811
     21 C            3.0090    4.1117   -0.0399 C.ar      1 MOL1       -0.0897
     22 C            1.6336    3.8111   -0.0055 C.ar      1 MOL1       -0.0893
     23 C            1.2058    2.5318    0.0109 C.ar      1 MOL1       -0.0807
     24 C            2.1061    1.4368   -0.0051 C.ar      1 MOL1       -0.0099
     25 C           -4.4155   -1.3694    0.2079 C.ar      1 MOL1        0.0583
     26 O           -4.0409   -2.6732    0.3210 O.3       1 MOL1       -0.3839
     27 C           -5.7312   -1.0720   -0.0818 C.ar      1 MOL1       -0.0770
     28 H           -1.9707   -1.0711    1.8463 H         1 MOL1        0.0635
     29  H          -7.5924    1.5258   -0.5040 H         1 MOL1        0.3295
     30  H          -5.5156    2.2104   -0.0525 H         1 MOL1        0.0924
     31  H          -3.2617    1.6983    0.4423 H         1 MOL1        0.0908
     32  H          -1.3063    1.1341   -0.3612 H         1 MOL1        0.0518
     33  H          -0.7463    1.0153    1.5445 H         1 MOL1        0.0518
     34  H          -1.8719   -2.0959   -0.7575 H         1 MOL1        0.2789
     35  H           1.4650   -2.5872    0.0417 H         1 MOL1        0.0910
     36  H           3.1546   -4.1869    0.0224 H         1 MOL1        0.0906
     37  H           5.4659   -3.5339   -0.0434 H         1 MOL1        0.0906
     38  H           6.0480   -1.2629   -0.0860 H         1 MOL1        0.0910
     39  H           5.4186    1.0327   -0.0879 H         1 MOL1        0.0914
     40  H           4.8899    3.3287   -0.0827 H         1 MOL1        0.0910
     41  H           3.3131    5.0642   -0.0512 H         1 MOL1        0.0906
     42  H           0.9657    4.5552    0.0069 H         1 MOL1        0.0906
     43  H           0.2269    2.3634    0.0352 H         1 MOL1        0.0910
     44  H          -3.1280   -2.7592    0.7340 H         1 MOL1        0.3295
     45  H          -6.3915   -1.8109   -0.2159 H         1 MOL1        0.0942
@<TRIPOS>BOND
     1      1      2 1 
     2      2      3 ar
     3      3      4 ar
     4      4      5 ar
     5      5      6 1 
     6      5     25 ar
     7      6      7 1 
     8      7      8 1 
     9      8      9 2 
    10      8     11 1 
    11      9     10 1 
    12     10      6 1 
    13     11     12 ar
    14     12     13 ar
    15     13     14 ar
    16     14     15 ar
    17     15     16 ar
    18     16     17 ar
    19     17     12 ar
    20     17     18 ar
    21     18     19 ar
    22     19     20 ar
    23     20     21 ar
    24     21     22 ar
    25     22     23 ar
    26     23     24 ar
    27     24     11 ar
    28     24     19 ar
    29     25     26 1 
    30     25     27 ar
    31     27      2 ar
    32      1     29 1 
    33      3     30 1 
    34      4     31 1 
    35      6     28 1 
    36      7     32 1 
    37      7     33 1 
    38     10     34 1 
    39     13     35 1 
    40     14     36 1 
    41     15     37 1 
    42     16     38 1 
    43     18     39 1 
    44     20     40 1 
    45     21     41 1 
    46     22     42 1 
    47     23     43 1 
    48     26     44 1 
    49     27     45 1 
@<TRIPOS>SUBSTRUCTURE
     1 MOL1         1 MOLECULE          1 A
