# Molecule written by the XED library from Cresset
@<TRIPOS>MOLECULE
CHEMBL94059
    46     49      1
SMALL
USER_CHARGES
@<TRIPOS>ATOM
      1 C            1.3547   -1.5255   -0.2331 C.3       1 MOL1       -0.0186
      2 O            2.1939   -0.3576   -0.3454 O.3       1 MOL1       -0.1693
      3 C            3.4856   -0.5377   -0.2009 C.ar      1 MOL1        0.2271
      4 N            4.0395   -1.7117   -0.0476 N.ar      1 MOL1       -0.2746
      5 O            5.4343   -1.4836    0.0795 O.3       1 MOL1       -0.0859
      6 C            5.6245   -0.1557   -0.0020 C.ar      1 MOL1        0.1014
      7 C            6.8358    0.5038    0.0811 C.ar      1 MOL1       -0.0790
      8 C            6.8229    1.8734   -0.0237 C.ar      1 MOL1       -0.0701
      9 C            5.6312    2.5675   -0.2072 C.ar      1 MOL1       -0.1042
     10 C            4.4318    1.9060   -0.2889 C.ar      1 MOL1       -0.0558
     11 C            4.4481    0.5231   -0.1822 C.ar      1 MOL1        0.0100
     12 C           -0.1479   -1.1829   -0.3151 C.3       1 MOL1       -0.0354
     13 C           -0.5909   -0.3216    0.8843 C.3       1 MOL1       -0.0709
     14 C           -2.0994    0.0120    0.7971 C.3       1 MOL1       -0.0460
     15 N           -2.9339   -1.0351    0.1594 N.3       1 MOL1       -0.2521
     16 C           -4.3104   -1.0102    0.7008 C.3       1 MOL1       -0.0032
     17 C           -5.1842    0.1618    0.2642 C.ar      1 MOL1       -0.0509
     18 C           -4.9303    1.4442    0.7013 C.ar      1 MOL1       -0.0846
     19 C           -5.7377    2.4876    0.3101 C.ar      1 MOL1       -0.0900
     20 C           -6.8103    2.2540   -0.5197 C.ar      1 MOL1       -0.0906
     21 C           -7.0715    0.9767   -0.9581 C.ar      1 MOL1       -0.0900
     22 C           -6.2599   -0.0641   -0.5676 C.ar      1 MOL1       -0.0846
     23 C           -2.3324   -2.3655    0.3674 C.3       1 MOL1       -0.0460
     24 C           -0.9695   -2.4949   -0.3532 C.3       1 MOL1       -0.0709
     25  H           1.5635   -2.0689    0.8174 H         1 MOL1        0.0645
     26  H           1.6161   -2.2855   -1.1249 H         1 MOL1        0.0645
     27  H           7.6910    0.0024    0.2131 H         1 MOL1        0.0924
     28  H           7.6835    2.3796    0.0329 H         1 MOL1        0.0906
     29  H           5.6490    3.5645   -0.2804 H         1 MOL1        0.0906
     30  H           3.5746    2.4041   -0.4198 H         1 MOL1        0.0910
     31  H          -0.3579   -0.5528   -1.3152 H         1 MOL1        0.0506
     32  H           0.0378    0.6998    0.9225 H         1 MOL1        0.0474
     33  H          -0.3730   -0.9563    1.8800 H         1 MOL1        0.0474
     34  H          -2.2397    1.0145    0.1517 H         1 MOL1        0.0568
     35  H          -2.4578    0.2524    1.9172 H         1 MOL1        0.0568
     36  H          -4.8792   -2.0063    0.3446 H         1 MOL1        0.0598
     37  H          -4.2818   -1.0505    1.8998 H         1 MOL1        0.0598
     38  H          -4.1537    1.6180    1.3064 H         1 MOL1        0.0908
     39  H          -5.5442    3.4151    0.6301 H         1 MOL1        0.0906
     40  H          -7.3989    3.0108   -0.8040 H         1 MOL1        0.0906
     41  H          -7.8514    0.8046   -1.5603 H         1 MOL1        0.0906
     42  H          -6.4558   -0.9910   -0.8879 H         1 MOL1        0.0908
     43  H          -3.0431   -3.2361   -0.0532 H         1 MOL1        0.0568
     44  H          -2.1786   -2.5362    1.5456 H         1 MOL1        0.0568
     45  H          -1.1502   -2.8037   -1.4997 H         1 MOL1        0.0474
     46  H          -0.3667   -3.3846    0.1820 H         1 MOL1        0.0474
@<TRIPOS>BOND
     1      1      2 1 
     2      1     12 1 
     3      2      3 1 
     4      3      4 ar
     5      4      5 ar
     6      5      6 ar
     7      6      7 ar
     8      7      8 ar
     9      8      9 ar
    10      9     10 ar
    11     10     11 ar
    12     11      3 ar
    13     11      6 ar
    14     12     13 1 
    15     13     14 1 
    16     14     15 1 
    17     15     16 1 
    18     15     23 1 
    19     16     17 1 
    20     17     18 ar
    21     18     19 ar
    22     19     20 ar
    23     20     21 ar
    24     21     22 ar
    25     22     17 ar
    26     23     24 1 
    27     24     12 1 
    28      1     25 1 
    29      1     26 1 
    30      7     27 1 
    31      8     28 1 
    32      9     29 1 
    33     10     30 1 
    34     12     31 1 
    35     13     32 1 
    36     13     33 1 
    37     14     34 1 
    38     14     35 1 
    39     16     36 1 
    40     16     37 1 
    41     18     38 1 
    42     19     39 1 
    43     20     40 1 
    44     21     41 1 
    45     22     42 1 
    46     23     43 1 
    47     23     44 1 
    48     24     45 1 
    49     24     46 1 
@<TRIPOS>SUBSTRUCTURE
     1 MOL1         1 MOLECULE          1 A
