# Molecule written by the XED library from Cresset
@<TRIPOS>MOLECULE
CHEMBL375126
    29     31      1
SMALL
USER_CHARGES
@<TRIPOS>ATOM
      1 Cl           5.3450   -1.1490    0.9644 Cl        1 MOL1       -0.1016
      2 C            3.8264   -0.3862    0.5870 C.ar      1 MOL1        0.0668
      3 C            2.6664   -0.8573    1.1597 C.ar      1 MOL1       -0.0588
      4 C            1.4562   -0.2801    0.8485 C.ar      1 MOL1       -0.0835
      5 C            1.3907    0.7655   -0.0473 C.ar      1 MOL1       -0.0420
      6 C            0.0972    1.4427   -0.4886 C.3       1 MOL1        0.1193
      7 N           -1.2202    0.8650   -0.1436 N.am      1 MOL1       -0.2290
      8 C           -2.2130    1.6448    0.3426 C.2       1 MOL1        0.3709
      9 O           -2.1342    2.8159    0.6794 O.2       1 MOL1       -0.3643
     10 C           -3.3745    0.7104    0.3293 C.2       1 MOL1        0.2213
     11 O           -4.5228    0.9905    0.6211 O.2       1 MOL1       -0.3176
     12 C           -2.9901   -0.6218   -0.1145 C.ar      1 MOL1       -0.0069
     13 C           -3.6205   -1.8424   -0.2835 C.ar      1 MOL1       -0.0588
     14 C           -2.8504   -2.8857   -0.7426 C.ar      1 MOL1       -0.1177
     15 C           -1.5031   -2.7090   -1.0261 C.ar      1 MOL1       -0.0740
     16 C           -0.8912   -1.4835   -0.8580 C.ar      1 MOL1       -0.0998
     17 C           -1.6585   -0.4373   -0.3902 C.ar      1 MOL1        0.0952
     18 C            2.5574    1.2469   -0.5990 C.ar      1 MOL1       -0.0533
     19 C            3.7725    0.6805   -0.2858 C.ar      1 MOL1        0.0678
     20 Cl           5.2248    1.3172   -1.0041 Cl        1 MOL1       -0.1016
     21  H           2.7026   -1.6251    1.7995 H         1 MOL1        0.0939
     22  H           0.6172   -0.6310    1.2644 H         1 MOL1        0.0908
     23  H           0.1253    2.5558   -0.0415 H         1 MOL1        0.0624
     24  H           0.1207    1.5380   -1.6850 H         1 MOL1        0.0624
     25  H          -4.5922   -1.9610   -0.0793 H         1 MOL1        0.0910
     26  H          -3.2675   -3.7848   -0.8750 H         1 MOL1        0.0906
     27  H          -0.9656   -3.4842   -1.3580 H         1 MOL1        0.0906
     28  H           0.0798   -1.3594   -1.0623 H         1 MOL1        0.0919
     29  H           2.5207    2.0141   -1.2395 H         1 MOL1        0.0941
@<TRIPOS>BOND
     1      1      2 1 
     2      2      3 ar
     3      3      4 ar
     4      4      5 ar
     5      5      6 1 
     6      5     18 ar
     7      6      7 1 
     8      7      8 am
     9      8      9 2 
    10      8     10 1 
    11     10     11 2 
    12     10     12 1 
    13     12     13 ar
    14     13     14 ar
    15     14     15 ar
    16     15     16 ar
    17     16     17 ar
    18     17      7 1 
    19     17     12 ar
    20     18     19 ar
    21     19      2 ar
    22     19     20 1 
    23      3     21 1 
    24      4     22 1 
    25      6     23 1 
    26      6     24 1 
    27     13     25 1 
    28     14     26 1 
    29     15     27 1 
    30     16     28 1 
    31     18     29 1 
@<TRIPOS>SUBSTRUCTURE
     1 MOL1         1 MOLECULE          1 A
