# Molecule written by the XED library from Cresset
@<TRIPOS>MOLECULE
CHEMBL95020
    53     57      1
SMALL
USER_CHARGES
@<TRIPOS>ATOM
      1 O           -9.3385   -0.1185   -0.2650 O.2       1 MOL1       -0.4137
      2 C           -8.1298   -0.0049   -0.1343 C.2       1 MOL1        0.3060
      3 C           -7.1174   -1.1460   -0.0655 C.3       1 MOL1        0.0285
      4 C           -5.7993   -0.3983    0.0994 C.ar      1 MOL1       -0.0536
      5 C           -6.1139    0.9286    0.1077 C.ar      1 MOL1        0.0977
      6 N           -7.4658    1.1530   -0.0279 N.am      1 MOL1       -0.2048
      7 C           -5.1570    1.9372    0.2404 C.ar      1 MOL1       -0.1080
      8 C           -3.8380    1.5838    0.3677 C.ar      1 MOL1       -0.0533
      9 C           -3.5085    0.2262    0.3608 C.ar      1 MOL1       -0.0167
     10 C           -2.3127   -0.5414    0.4605 C.ar      1 MOL1        0.1005
     11 C           -0.9017   -0.0049    0.6182 C.3       1 MOL1       -0.0334
     12 C            0.0888   -0.7486   -0.2965 C.3       1 MOL1       -0.0806
     13 C            1.5510   -0.3024   -0.0906 C.3       1 MOL1       -0.0563
     14 C            2.4497   -1.2238   -0.9380 C.3       1 MOL1       -0.0743
     15 C            3.9445   -0.8434   -0.8163 C.3       1 MOL1       -0.0462
     16 N            4.2027    0.5845   -0.5185 N.3       1 MOL1       -0.2521
     17 C            5.5370    0.9860   -1.0146 C.3       1 MOL1       -0.0032
     18 C            6.7473    0.3709   -0.3193 C.ar      1 MOL1       -0.0509
     19 C            7.1062   -0.9441   -0.5287 C.ar      1 MOL1       -0.0846
     20 C            8.2117   -1.4754    0.0965 C.ar      1 MOL1       -0.0900
     21 C            8.9719   -0.6918    0.9333 C.ar      1 MOL1       -0.0906
     22 C            8.6239    0.6223    1.1440 C.ar      1 MOL1       -0.0900
     23 C            7.5158    1.1490    0.5196 C.ar      1 MOL1       -0.0846
     24 C            3.1588    1.4274   -1.1312 C.3       1 MOL1       -0.0462
     25 C            1.7682    1.1779   -0.4978 C.3       1 MOL1       -0.0743
     26 N           -2.5553   -1.8172    0.3989 N.ar      1 MOL1       -0.2792
     27 O           -3.9552   -1.9798    0.2470 O.3       1 MOL1       -0.0843
     28 C           -4.4732   -0.7451    0.2298 C.ar      1 MOL1        0.1059
     29  H          -7.3355   -1.8487    0.8821 H         1 MOL1        0.0558
     30  H          -7.1260   -1.7817   -1.0833 H         1 MOL1        0.0558
     31  H          -7.8444    1.9478   -0.0437 H         1 MOL1        0.2055
     32  H          -5.4284    2.8996    0.2425 H         1 MOL1        0.0919
     33  H          -3.1282    2.2820    0.4634 H         1 MOL1        0.0910
     34  H          -0.5582   -0.1440    1.7591 H         1 MOL1        0.0503
     35  H          -0.8905    1.1635    0.3457 H         1 MOL1        0.0503
     36  H          -0.2317   -0.5843   -1.4412 H         1 MOL1        0.0465
     37  H           0.0069   -1.9197   -0.0465 H         1 MOL1        0.0465
     38  H           1.8478   -0.4533    1.0624 H         1 MOL1        0.0488
     39  H           2.3035   -2.3732   -0.6226 H         1 MOL1        0.0474
     40  H           2.1069   -1.0907   -2.0817 H         1 MOL1        0.0474
     41  H           4.4597   -1.1663   -1.8527 H         1 MOL1        0.0568
     42  H           4.4528   -1.4920    0.0561 H         1 MOL1        0.0568
     43  H           5.6174    0.7626   -2.1903 H         1 MOL1        0.0598
     44  H           5.6523    2.1741   -0.8878 H         1 MOL1        0.0598
     45  H           6.5590   -1.5182   -1.1376 H         1 MOL1        0.0908
     46  H           8.4624   -2.4312   -0.0584 H         1 MOL1        0.0906
     47  H           9.7766   -1.0762    1.3861 H         1 MOL1        0.0906
     48  H           9.1759    1.1951    1.7506 H         1 MOL1        0.0906
     49  H           7.2675    2.1055    0.6734 H         1 MOL1        0.0908
     50  H           3.1069    1.1847   -2.3064 H         1 MOL1        0.0568
     51  H           3.4161    2.5921   -1.0013 H         1 MOL1        0.0568
     52  H           0.9349    1.5215   -1.2914 H         1 MOL1        0.0474
     53  H           1.6491    1.8655    0.4808 H         1 MOL1        0.0474
@<TRIPOS>BOND
     1      1      2 2 
     2      2      3 1 
     3      3      4 1 
     4      4      5 ar
     5      5      6 1 
     6      5      7 ar
     7      6      2 am
     8      7      8 ar
     9      8      9 ar
    10      9     10 ar
    11     10     11 1 
    12     10     26 ar
    13     11     12 1 
    14     12     13 1 
    15     13     14 1 
    16     14     15 1 
    17     15     16 1 
    18     16     17 1 
    19     16     24 1 
    20     17     18 1 
    21     18     19 ar
    22     19     20 ar
    23     20     21 ar
    24     21     22 ar
    25     22     23 ar
    26     23     18 ar
    27     24     25 1 
    28     25     13 1 
    29     26     27 ar
    30     27     28 ar
    31     28      4 ar
    32     28      9 ar
    33      3     29 1 
    34      3     30 1 
    35      6     31 1 
    36      7     32 1 
    37      8     33 1 
    38     11     34 1 
    39     11     35 1 
    40     12     36 1 
    41     12     37 1 
    42     13     38 1 
    43     14     39 1 
    44     14     40 1 
    45     15     41 1 
    46     15     42 1 
    47     17     43 1 
    48     17     44 1 
    49     19     45 1 
    50     20     46 1 
    51     21     47 1 
    52     22     48 1 
    53     23     49 1 
    54     24     50 1 
    55     24     51 1 
    56     25     52 1 
    57     25     53 1 
@<TRIPOS>SUBSTRUCTURE
     1 MOL1         1 MOLECULE          1 A
