# Molecule written by the XED library from Cresset
@<TRIPOS>MOLECULE
CHEMBL514186
    55     58      1
SMALL
USER_CHARGES
@<TRIPOS>ATOM
      1 C            6.0013   -3.6906   -0.0306 C.3       1 MOL1       -0.0471
      2 O            6.4518   -2.3211   -0.0272 O.3       1 MOL1       -0.1993
      3 C            5.5453   -1.3409    0.0529 C.ar      1 MOL1        0.0824
      4 C            4.1821   -1.6036    0.1332 C.ar      1 MOL1       -0.0742
      5 C            3.2910   -0.5652    0.2072 C.ar      1 MOL1       -0.0420
      6 C            1.7719   -0.5984    0.3085 C.3       1 MOL1       -0.0041
      7 C            1.3515    0.8629    0.2267 C.2       1 MOL1       -0.0323
      8 C            0.2076    1.5359   -0.0096 C.2       1 MOL1       -0.0234
      9 C           -1.1075    0.8879   -0.1905 C.ar      1 MOL1       -0.0260
     10 C           -2.1102    1.6021   -0.8256 C.ar      1 MOL1       -0.0703
     11 C           -3.3399    1.0324   -1.0450 C.ar      1 MOL1       -0.0831
     12 C           -3.6014   -0.2541   -0.6225 C.ar      1 MOL1       -0.0406
     13 C           -4.9529   -0.9058   -0.8920 C.3       1 MOL1       -0.0025
     14 N           -6.0333   -0.6156    0.0728 N.3       1 MOL1       -0.2521
     15 C           -6.5045    0.7772   -0.0800 C.3       1 MOL1       -0.0469
     16 C           -7.6357    1.1136    0.9124 C.3       1 MOL1       -0.0785
     17 C           -8.8129    0.1464    0.6937 C.3       1 MOL1       -0.0843
     18 C           -8.3119   -1.3013    0.8436 C.3       1 MOL1       -0.0785
     19 C           -7.1532   -1.5521   -0.1430 C.3       1 MOL1       -0.0469
     20 C           -2.6130   -0.9631    0.0275 C.ar      1 MOL1       -0.0831
     21 C           -1.3765   -0.4025    0.2395 C.ar      1 MOL1       -0.0703
     22 C            2.5882    1.6040    0.2587 C.2       1 MOL1        0.1921
     23 O            2.7055    2.8219    0.2964 O.2       1 MOL1       -0.3952
     24 C            3.7497    0.7303    0.2032 C.ar      1 MOL1       -0.0045
     25 C            5.1022    1.0211    0.1301 C.ar      1 MOL1       -0.0552
     26 C            6.0048   -0.0203    0.0528 C.ar      1 MOL1        0.0721
     27 O            7.3309    0.1933   -0.0284 O.3       1 MOL1       -0.2025
     28 C            7.8173    1.5506   -0.0524 C.3       1 MOL1       -0.0471
     29  H           5.2794   -3.8753   -0.9712 H         1 MOL1        0.0618
     30  H           5.4073   -3.9209    0.9862 H         1 MOL1        0.0618
     31  H           6.9507   -4.4203   -0.1099 H         1 MOL1        0.0618
     32  H           3.8484   -2.5459    0.1367 H         1 MOL1        0.0926
     33  H           1.4727   -1.0437    1.3820 H         1 MOL1        0.0524
     34  H           1.2692   -1.2461   -0.5678 H         1 MOL1        0.0524
     35  H           0.2584    2.5217   -0.0964 H         1 MOL1        0.0912
     36  H          -1.9338    2.5363   -1.1356 H         1 MOL1        0.0910
     37  H          -4.0513    1.5538   -1.5162 H         1 MOL1        0.0908
     38  H          -4.7499   -2.0897   -0.8919 H         1 MOL1        0.0598
     39  H          -5.3128   -0.6204   -2.0011 H         1 MOL1        0.0598
     40  H          -5.6003    1.5371    0.1259 H         1 MOL1        0.0568
     41  H          -6.9188    0.9467   -1.1935 H         1 MOL1        0.0568
     42  H          -8.0049    2.2414    0.7337 H         1 MOL1        0.0471
     43  H          -7.2288    0.9983    2.0353 H         1 MOL1        0.0471
     44  H          -9.2500    0.3001   -0.4134 H         1 MOL1        0.0460
     45  H          -9.6756    0.3653    1.4984 H         1 MOL1        0.0460
     46  H          -7.9221   -1.4715    1.9655 H         1 MOL1        0.0471
     47  H          -9.2095   -2.0633    0.6121 H         1 MOL1        0.0471
     48  H          -6.7834   -2.6832    0.0114 H         1 MOL1        0.0568
     49  H          -7.5597   -1.4210   -1.2645 H         1 MOL1        0.0568
     50  H          -2.7944   -1.8961    0.3383 H         1 MOL1        0.0908
     51  H          -0.6649   -0.9299    0.7037 H         1 MOL1        0.0910
     52  H           5.4149    1.9706    0.1272 H         1 MOL1        0.0928
     53  H           9.0140    1.5432   -0.1403 H         1 MOL1        0.0618
     54  H           7.4960    2.1103    0.9593 H         1 MOL1        0.0618
     55  H           7.3531    2.1292   -0.9960 H         1 MOL1        0.0618
@<TRIPOS>BOND
     1      1      2 1 
     2      2      3 1 
     3      3      4 ar
     4      4      5 ar
     5      5      6 1 
     6      6      7 1 
     7      7      8 2 
     8      7     22 1 
     9      8      9 1 
    10      9     10 ar
    11     10     11 ar
    12     11     12 ar
    13     12     13 1 
    14     12     20 ar
    15     13     14 1 
    16     14     15 1 
    17     15     16 1 
    18     16     17 1 
    19     17     18 1 
    20     18     19 1 
    21     19     14 1 
    22     20     21 ar
    23     21      9 ar
    24     22     23 2 
    25     22     24 1 
    26     24      5 ar
    27     24     25 ar
    28     25     26 ar
    29     26      3 ar
    30     26     27 1 
    31     27     28 1 
    32      1     29 1 
    33      1     30 1 
    34      1     31 1 
    35      4     32 1 
    36      6     33 1 
    37      6     34 1 
    38      8     35 1 
    39     10     36 1 
    40     11     37 1 
    41     13     38 1 
    42     13     39 1 
    43     15     40 1 
    44     15     41 1 
    45     16     42 1 
    46     16     43 1 
    47     17     44 1 
    48     17     45 1 
    49     18     46 1 
    50     18     47 1 
    51     19     48 1 
    52     19     49 1 
    53     20     50 1 
    54     21     51 1 
    55     25     52 1 
    56     28     53 1 
    57     28     54 1 
    58     28     55 1 
@<TRIPOS>SUBSTRUCTURE
     1 MOL1         1 MOLECULE          1 A
