# Molecule written by the XED library from Cresset
@<TRIPOS>MOLECULE
CHEMBL329231
    56     60      1
SMALL
USER_CHARGES
@<TRIPOS>ATOM
      1 O            9.3514   -1.2398   -0.0086 O.2       1 MOL1       -0.4142
      2 C            8.1415   -1.1273    0.1062 C.2       1 MOL1        0.2967
      3 C            7.2472   -2.3091    0.4311 C.3       1 MOL1       -0.0092
      4 C            5.8848   -2.2513   -0.2838 C.3       1 MOL1       -0.0346
      5 C            5.2583   -0.8774   -0.1542 C.ar      1 MOL1       -0.0813
      6 C            3.8978   -0.7379   -0.1780 C.ar      1 MOL1       -0.0498
      7 C            3.3778    0.5461   -0.0599 C.ar      1 MOL1       -0.0168
      8 C            2.0793    1.1247   -0.0393 C.ar      1 MOL1        0.1005
      9 C            0.7784    0.3590   -0.1869 C.3       1 MOL1       -0.0334
     10 C           -0.4684    1.0537    0.3972 C.3       1 MOL1       -0.0806
     11 C           -1.7684    0.4880   -0.2113 C.3       1 MOL1       -0.0563
     12 C           -2.9759    1.3254    0.2491 C.3       1 MOL1       -0.0743
     13 C           -4.2458    0.7823   -0.4382 C.3       1 MOL1       -0.0462
     14 N           -4.4971   -0.6376   -0.1084 N.3       1 MOL1       -0.2521
     15 C           -5.6881   -1.1329   -0.8281 C.3       1 MOL1       -0.0032
     16 C           -7.0316   -0.6223   -0.3259 C.ar      1 MOL1       -0.0509
     17 C           -7.5963    0.5137   -0.8633 C.ar      1 MOL1       -0.0846
     18 C           -8.8202    0.9581   -0.4172 C.ar      1 MOL1       -0.0900
     19 C           -9.4870    0.2665    0.5678 C.ar      1 MOL1       -0.0906
     20 C           -8.9283   -0.8691    1.1071 C.ar      1 MOL1       -0.0900
     21 C           -7.7031   -1.3104    0.6616 C.ar      1 MOL1       -0.0846
     22 C           -3.3274   -1.4603   -0.4718 C.3       1 MOL1       -0.0462
     23 C           -2.0265   -0.9756    0.1983 C.3       1 MOL1       -0.0743
     24 N            2.1329    2.4160    0.0986 N.ar      1 MOL1       -0.2792
     25 O            3.5043    2.7736    0.1774 O.3       1 MOL1       -0.0849
     26 C            4.2025    1.6334    0.0732 C.ar      1 MOL1        0.1003
     27 C            5.5757    1.5048    0.0879 C.ar      1 MOL1       -0.0891
     28 C            6.1042    0.2323   -0.0246 C.ar      1 MOL1        0.0962
     29 N            7.4921    0.0471   -0.0163 N.am      1 MOL1       -0.2049
     30  H           7.0536   -2.3130    1.6153 H         1 MOL1        0.0530
     31  H           7.8047   -3.3271    0.1267 H         1 MOL1        0.0530
     32  H           6.0425   -2.4967   -1.4477 H         1 MOL1        0.0495
     33  H           5.1659   -3.0836    0.1970 H         1 MOL1        0.0495
     34  H           3.2986   -1.5320   -0.2775 H         1 MOL1        0.0912
     35  H           0.6135    0.1625   -1.3591 H         1 MOL1        0.0503
     36  H           0.9228   -0.6984    0.3603 H         1 MOL1        0.0503
     37  H          -0.4829    0.9287    1.5908 H         1 MOL1        0.0465
     38  H          -0.4162    2.2220    0.1277 H         1 MOL1        0.0465
     39  H          -1.7136    0.5545   -1.4082 H         1 MOL1        0.0488
     40  H          -2.8168    2.4736   -0.0605 H         1 MOL1        0.0474
     41  H          -3.0928    1.2446    1.4405 H         1 MOL1        0.0474
     42  H          -5.1789    1.4455   -0.0799 H         1 MOL1        0.0568
     43  H          -4.1043    0.9071   -1.6236 H         1 MOL1        0.0568
     44  H          -5.7328   -2.3283   -0.7227 H         1 MOL1        0.0598
     45  H          -5.5817   -0.9006   -2.0014 H         1 MOL1        0.0598
     46  H          -7.1157    1.0168   -1.5812 H         1 MOL1        0.0908
     47  H          -9.2259    1.7830   -0.8103 H         1 MOL1        0.0906
     48  H         -10.3771    0.5882    0.8900 H         1 MOL1        0.0906
     49  H          -9.4130   -1.3745    1.8211 H         1 MOL1        0.0906
     50  H          -7.3000   -2.1372    1.0538 H         1 MOL1        0.0908
     51  H          -3.5073   -2.5982   -0.1369 H         1 MOL1        0.0568
     52  H          -3.1807   -1.4197   -1.6620 H         1 MOL1        0.0568
     53  H          -1.1268   -1.6776   -0.1702 H         1 MOL1        0.0474
     54  H          -2.1340   -1.0492    1.3910 H         1 MOL1        0.0474
     55  H           6.1686    2.3048    0.1785 H         1 MOL1        0.0937
     56  H           7.9935    0.7649   -0.1068 H         1 MOL1        0.2055
@<TRIPOS>BOND
     1      1      2 2 
     2      2      3 1 
     3      3      4 1 
     4      4      5 1 
     5      5      6 ar
     6      6      7 ar
     7      7      8 ar
     8      8      9 1 
     9      8     24 ar
    10      9     10 1 
    11     10     11 1 
    12     11     12 1 
    13     12     13 1 
    14     13     14 1 
    15     14     15 1 
    16     14     22 1 
    17     15     16 1 
    18     16     17 ar
    19     17     18 ar
    20     18     19 ar
    21     19     20 ar
    22     20     21 ar
    23     21     16 ar
    24     22     23 1 
    25     23     11 1 
    26     24     25 ar
    27     25     26 ar
    28     26      7 ar
    29     26     27 ar
    30     27     28 ar
    31     28      5 ar
    32     28     29 1 
    33     29      2 am
    34      3     30 1 
    35      3     31 1 
    36      4     32 1 
    37      4     33 1 
    38      6     34 1 
    39      9     35 1 
    40      9     36 1 
    41     10     37 1 
    42     10     38 1 
    43     11     39 1 
    44     12     40 1 
    45     12     41 1 
    46     13     42 1 
    47     13     43 1 
    48     15     44 1 
    49     15     45 1 
    50     17     46 1 
    51     18     47 1 
    52     19     48 1 
    53     20     49 1 
    54     21     50 1 
    55     22     51 1 
    56     22     52 1 
    57     23     53 1 
    58     23     54 1 
    59     27     55 1 
    60     29     56 1 
@<TRIPOS>SUBSTRUCTURE
     1 MOL1         1 MOLECULE          1 A
