# Molecule written by the XED library from Cresset
@<TRIPOS>MOLECULE
CHEMBL3818084
    51     54      1
SMALL
USER_CHARGES
@<TRIPOS>ATOM
      1 C           -7.8731   -2.5960    0.2052 C.3       1 MOL1       -0.0471
      2 O           -6.4349   -2.6985    0.2231 O.3       1 MOL1       -0.2006
      3 C           -5.7079   -1.5957    0.0482 C.ar      1 MOL1        0.0761
      4 C           -6.2839   -0.3437   -0.1682 C.ar      1 MOL1       -0.0813
      5 C           -5.5085    0.7734   -0.3483 C.ar      1 MOL1       -0.0567
      6 C           -4.1307    0.6278   -0.3078 C.ar      1 MOL1       -0.0065
      7 C           -3.0576    1.5971   -0.4578 C.2       1 MOL1        0.1997
      8 O           -3.2924    2.7796   -0.6624 O.2       1 MOL1       -0.3897
      9 C           -1.7497    0.9814   -0.3228 C.2       1 MOL1       -0.0313
     10 C           -0.6593    1.7454   -0.4111 C.2       1 MOL1       -0.0522
     11 C            0.8068    1.4028   -0.2367 C.3       1 MOL1       -0.0233
     12 C            1.0681    0.0354    0.4276 C.3       1 MOL1       -0.0701
     13 C            2.5815   -0.2253    0.6265 C.3       1 MOL1       -0.0455
     14 N            3.4277    0.9822    0.5050 N.3       1 MOL1       -0.2520
     15 C            4.7814    0.7284    1.0395 C.3       1 MOL1       -0.0032
     16 C            5.5754   -0.3744    0.3513 C.ar      1 MOL1       -0.0509
     17 C            5.5841   -1.6465    0.8805 C.ar      1 MOL1       -0.0846
     18 C            6.3017   -2.6492    0.2694 C.ar      1 MOL1       -0.0900
     19 C            7.0175   -2.3824   -0.8749 C.ar      1 MOL1       -0.0906
     20 C            7.0138   -1.1130   -1.4064 C.ar      1 MOL1       -0.0900
     21 C            6.2940   -0.1118   -0.7945 C.ar      1 MOL1       -0.0846
     22 C            2.8108    2.1087    1.2275 C.3       1 MOL1       -0.0455
     23 C            1.4474    2.5209    0.6181 C.3       1 MOL1       -0.0701
     24 C           -2.0293   -0.4952   -0.0876 C.3       1 MOL1       -0.0039
     25 C           -3.5468   -0.6005   -0.0905 C.ar      1 MOL1       -0.0261
     26 C           -4.3248   -1.7115    0.0858 C.ar      1 MOL1       -0.0769
     27  H          -8.2343   -2.1752   -0.8588 H         1 MOL1        0.0618
     28  H          -8.2405   -1.8558    1.0759 H         1 MOL1        0.0618
     29  H          -8.3490   -3.6829    0.3836 H         1 MOL1        0.0618
     30  H          -7.2791   -0.2549   -0.1930 H         1 MOL1        0.0924
     31  H          -5.9259    1.6687   -0.5040 H         1 MOL1        0.0910
     32  H          -0.8400    2.7019   -0.5940 H         1 MOL1        0.0887
     33  H           1.3397    1.4197   -1.3124 H         1 MOL1        0.0514
     34  H           0.5999   -0.8487   -0.2336 H         1 MOL1        0.0476
     35  H           0.5348    0.0577    1.5029 H         1 MOL1        0.0476
     36  H           2.7250   -0.7277    1.7080 H         1 MOL1        0.0568
     37  H           2.9616   -1.0119   -0.1971 H         1 MOL1        0.0568
     38  H           5.4254    1.7360    0.9319 H         1 MOL1        0.0598
     39  H           4.6995    0.4872    2.2128 H         1 MOL1        0.0598
     40  H           5.0659   -1.8423    1.7130 H         1 MOL1        0.0908
     41  H           6.3033   -3.5709    0.6572 H         1 MOL1        0.0906
     42  H           7.5400   -3.1099   -1.3195 H         1 MOL1        0.0906
     43  H           7.5344   -0.9179   -2.2375 H         1 MOL1        0.0906
     44  H           6.2938    0.8097   -1.1828 H         1 MOL1        0.0908
     45  H           2.6556    1.7771    2.3715 H         1 MOL1        0.0568
     46  H           3.5324    3.0682    1.2127 H         1 MOL1        0.0568
     47  H           0.6923    2.8110    1.5053 H         1 MOL1        0.0476
     48  H           1.5892    3.4882   -0.0794 H         1 MOL1        0.0476
     49  H          -1.5932   -0.8680    0.9657 H         1 MOL1        0.0524
     50  H          -1.5962   -1.1541   -0.9923 H         1 MOL1        0.0524
     51  H          -3.8968   -2.6022    0.2411 H         1 MOL1        0.0926
@<TRIPOS>BOND
     1      1      2 1 
     2      2      3 1 
     3      3      4 ar
     4      4      5 ar
     5      5      6 ar
     6      6      7 1 
     7      7      8 2 
     8      7      9 1 
     9      9     10 2 
    10      9     24 1 
    11     10     11 1 
    12     11     12 1 
    13     12     13 1 
    14     13     14 1 
    15     14     15 1 
    16     14     22 1 
    17     15     16 1 
    18     16     17 ar
    19     17     18 ar
    20     18     19 ar
    21     19     20 ar
    22     20     21 ar
    23     21     16 ar
    24     22     23 1 
    25     23     11 1 
    26     24     25 1 
    27     25      6 ar
    28     25     26 ar
    29     26      3 ar
    30      1     27 1 
    31      1     28 1 
    32      1     29 1 
    33      4     30 1 
    34      5     31 1 
    35     10     32 1 
    36     11     33 1 
    37     12     34 1 
    38     12     35 1 
    39     13     36 1 
    40     13     37 1 
    41     15     38 1 
    42     15     39 1 
    43     17     40 1 
    44     18     41 1 
    45     19     42 1 
    46     20     43 1 
    47     21     44 1 
    48     22     45 1 
    49     22     46 1 
    50     23     47 1 
    51     23     48 1 
    52     24     49 1 
    53     24     50 1 
    54     26     51 1 
@<TRIPOS>SUBSTRUCTURE
     1 MOL1         1 MOLECULE          1 A
