# Molecule written by the XED library from Cresset
@<TRIPOS>MOLECULE
CHEMBL92775
    49     52      1
SMALL
USER_CHARGES
@<TRIPOS>ATOM
      1 N            9.4669   -1.0735   -0.0662 N.1       1 MOL1       -0.4809
      2 C            8.3546   -0.8427   -0.0439 C.1       1 MOL1        0.3877
      3 C            6.9452   -0.5489   -0.0157 C.ar      1 MOL1        0.0326
      4 C            6.0184   -1.6026    0.0441 C.ar      1 MOL1       -0.0720
      5 C            4.6749   -1.3537    0.0731 C.ar      1 MOL1       -0.0552
      6 C            4.2600   -0.0261    0.0403 C.ar      1 MOL1        0.0072
      7 C            3.0080    0.6518    0.0600 C.ar      1 MOL1        0.1114
      8 C            1.6515   -0.0207    0.1630 C.3       1 MOL1       -0.0333
      9 C            0.4745    0.7741   -0.4373 C.3       1 MOL1       -0.0806
     10 C           -0.8814    0.2836    0.1122 C.3       1 MOL1       -0.0563
     11 C           -2.0135    1.2358   -0.3135 C.3       1 MOL1       -0.0743
     12 C           -3.3261    0.7710    0.3522 C.3       1 MOL1       -0.0462
     13 N           -3.6947   -0.6172   -0.0040 N.3       1 MOL1       -0.2521
     14 C           -4.9031   -1.0357    0.7373 C.3       1 MOL1       -0.0032
     15 C           -6.2342   -0.4296    0.3086 C.ar      1 MOL1       -0.0509
     16 C           -6.6421    0.8057    0.7631 C.ar      1 MOL1       -0.0846
     17 C           -7.8644    1.3167    0.3883 C.ar      1 MOL1       -0.0900
     18 C           -8.6905    0.5911   -0.4395 C.ar      1 MOL1       -0.0906
     19 C           -8.2867   -0.6425   -0.8971 C.ar      1 MOL1       -0.0900
     20 C           -7.0620   -1.1479   -0.5255 C.ar      1 MOL1       -0.0846
     21 C           -2.5829   -1.5384    0.3085 C.3       1 MOL1       -0.0462
     22 C           -1.2618   -1.1290   -0.3758 C.3       1 MOL1       -0.0743
     23 N            3.1610    1.9396    0.0100 N.ar      1 MOL1       -0.2585
     24 O            4.5556    2.1959   -0.0485 O.3       1 MOL1       -0.0818
     25 C            5.1650    1.0020   -0.0219 C.ar      1 MOL1        0.1075
     26 C            6.5233    0.7724   -0.0496 C.ar      1 MOL1       -0.0488
     27  H           6.3461   -2.5472    0.0663 H         1 MOL1        0.0914
     28  H           4.0120   -2.1011    0.1172 H         1 MOL1        0.0910
     29  H           1.7296   -1.0840   -0.3879 H         1 MOL1        0.0503
     30  H           1.4453   -0.2125    1.3291 H         1 MOL1        0.0503
     31  H           0.6078    1.9249   -0.1221 H         1 MOL1        0.0465
     32  H           0.4947    0.6937   -1.6345 H         1 MOL1        0.0465
     33  H          -0.8340    0.2798    1.3112 H         1 MOL1        0.0488
     34  H          -2.1313    1.2148   -1.5078 H         1 MOL1        0.0474
     35  H          -1.7649    2.3538    0.0452 H         1 MOL1        0.0474
     36  H          -4.2015    1.5168    0.0129 H         1 MOL1        0.0568
     37  H          -3.1743    0.8576    1.5395 H         1 MOL1        0.0568
     38  H          -4.7522   -0.8393    1.9122 H         1 MOL1        0.0598
     39  H          -5.0294   -2.2227    0.6028 H         1 MOL1        0.0598
     40  H          -6.0490    1.3333    1.3709 H         1 MOL1        0.0908
     41  H          -8.1547    2.2135    0.7220 H         1 MOL1        0.0906
     42  H          -9.5823    0.9580   -0.7065 H         1 MOL1        0.0906
     43  H          -8.8846   -1.1738   -1.4974 H         1 MOL1        0.0906
     44  H          -6.7756   -2.0467   -0.8570 H         1 MOL1        0.0908
     45  H          -2.4084   -1.5504    1.4960 H         1 MOL1        0.0568
     46  H          -2.8505   -2.6512   -0.0518 H         1 MOL1        0.0568
     47  H          -0.4131   -1.9239   -0.0819 H         1 MOL1        0.0474
     48  H          -1.4100   -1.1214   -1.5671 H         1 MOL1        0.0474
     49  H           7.1789    1.5260   -0.0932 H         1 MOL1        0.0932
@<TRIPOS>BOND
     1      1      2 3 
     2      2      3 1 
     3      3      4 ar
     4      4      5 ar
     5      5      6 ar
     6      6      7 ar
     7      7      8 1 
     8      7     23 ar
     9      8      9 1 
    10      9     10 1 
    11     10     11 1 
    12     11     12 1 
    13     12     13 1 
    14     13     14 1 
    15     13     21 1 
    16     14     15 1 
    17     15     16 ar
    18     16     17 ar
    19     17     18 ar
    20     18     19 ar
    21     19     20 ar
    22     20     15 ar
    23     21     22 1 
    24     22     10 1 
    25     23     24 ar
    26     24     25 ar
    27     25      6 ar
    28     25     26 ar
    29     26      3 ar
    30      4     27 1 
    31      5     28 1 
    32      8     29 1 
    33      8     30 1 
    34      9     31 1 
    35      9     32 1 
    36     10     33 1 
    37     11     34 1 
    38     11     35 1 
    39     12     36 1 
    40     12     37 1 
    41     14     38 1 
    42     14     39 1 
    43     16     40 1 
    44     17     41 1 
    45     18     42 1 
    46     19     43 1 
    47     20     44 1 
    48     21     45 1 
    49     21     46 1 
    50     22     47 1 
    51     22     48 1 
    52     26     49 1 
@<TRIPOS>SUBSTRUCTURE
     1 MOL1         1 MOLECULE          1 A
