# Molecule written by the XED library from Cresset
@<TRIPOS>MOLECULE
CHEMBL3819247
    54     58      1
SMALL
USER_CHARGES
@<TRIPOS>ATOM
      1 C           -9.8425    0.9526    0.3894 C.3       1 MOL1       -0.0471
      2 O           -8.8422   -0.0812    0.4992 O.3       1 MOL1       -0.2039
      3 C           -7.5512    0.2467    0.3300 C.ar      1 MOL1        0.0640
      4 C           -7.1410    1.5570    0.1007 C.ar      1 MOL1       -0.0692
      5 C           -5.8107    1.8745   -0.0761 C.ar      1 MOL1       -0.0805
      6 C           -4.8718    0.8761   -0.0283 C.ar      1 MOL1       -0.0447
      7 C           -3.3633    0.9830   -0.2018 C.3       1 MOL1       -0.0045
      8 C           -2.8739   -0.4549   -0.1450 C.2       1 MOL1       -0.0313
      9 C           -1.7259   -1.0801   -0.4171 C.2       1 MOL1       -0.0507
     10 C           -0.3669   -0.5412   -0.8271 C.3       1 MOL1       -0.0232
     11 C            0.7650   -1.3036   -0.1107 C.3       1 MOL1       -0.0701
     12 C            2.1141   -0.9091   -0.7510 C.3       1 MOL1       -0.0455
     13 N            2.4120    0.5314   -0.6081 N.3       1 MOL1       -0.2521
     14 C            3.6598    0.8806   -1.3293 C.3       1 MOL1       -0.0042
     15 C            4.9897    0.3523   -0.7933 C.ar      1 MOL1       -0.0635
     16 C            5.3688   -0.9531   -1.0657 C.ar      1 MOL1       -0.0973
     17 C            6.5665   -1.4722   -0.6090 C.ar      1 MOL1       -0.0806
     18 C            7.3697   -0.6307    0.1196 C.ar      1 MOL1        0.0687
     19 O            8.5516   -0.8952    0.6596 O.3       1 MOL1       -0.1768
     20 C            9.0704    0.3162    1.2835 C.3       1 MOL1        0.0590
     21 O            7.9701    1.2521    1.0782 O.3       1 MOL1       -0.1768
     22 C            7.0146    0.6547    0.3769 C.ar      1 MOL1        0.0695
     23 C            5.8241    1.1839   -0.0634 C.ar      1 MOL1       -0.0754
     24 C            1.2909    1.3367   -1.1413 C.3       1 MOL1       -0.0455
     25 C           -0.1021    0.9600   -0.5837 C.3       1 MOL1       -0.0701
     26 C           -4.0544   -1.2406    0.1759 C.2       1 MOL1        0.2049
     27 O           -4.0991   -2.4411    0.4024 O.2       1 MOL1       -0.3843
     28 C           -5.2657   -0.4222    0.1988 C.ar      1 MOL1        0.0073
     29 C           -6.5988   -0.7540    0.3808 C.ar      1 MOL1       -0.0566
     30  H         -10.9314    0.4718    0.5398 H         1 MOL1        0.0618
     31  H          -9.7870    1.4642   -0.6956 H         1 MOL1        0.0618
     32  H          -9.6677    1.7857    1.2356 H         1 MOL1        0.0618
     33  H          -7.8208    2.2882    0.0616 H         1 MOL1        0.0924
     34  H          -5.5348    2.8214   -0.2412 H         1 MOL1        0.0908
     35  H          -2.9014    1.6095    0.7111 H         1 MOL1        0.0524
     36  H          -3.1183    1.4978   -1.2572 H         1 MOL1        0.0524
     37  H          -1.7689   -2.0663   -0.3309 H         1 MOL1        0.0887
     38  H          -0.2494   -0.7717   -1.9989 H         1 MOL1        0.0514
     39  H           0.6120   -2.4880   -0.2278 H         1 MOL1        0.0476
     40  H           0.7692   -1.0100    1.0526 H         1 MOL1        0.0476
     41  H           2.0694   -1.1982   -1.9139 H         1 MOL1        0.0568
     42  H           2.9831   -1.5474   -0.2255 H         1 MOL1        0.0568
     43  H           3.7597    2.0770   -1.3474 H         1 MOL1        0.0598
     44  H           3.5611    0.5311   -2.4742 H         1 MOL1        0.0598
     45  H           4.7596   -1.5347   -1.6040 H         1 MOL1        0.0908
     46  H           6.8351   -2.4155   -0.8010 H         1 MOL1        0.0924
     47  H           9.3023    0.1514    2.4491 H         1 MOL1        0.0806
     48  H          10.0481    0.6923    0.6981 H         1 MOL1        0.0806
     49  H           5.5743    2.1321    0.1327 H         1 MOL1        0.0926
     50  H           1.4888    2.4971   -0.9033 H         1 MOL1        0.0568
     51  H           1.2383    1.1960   -2.3314 H         1 MOL1        0.0568
     52  H          -0.9006    1.6391   -1.1631 H         1 MOL1        0.0476
     53  H          -0.1578    1.1878    0.5933 H         1 MOL1        0.0476
     54  H          -6.8675   -1.7040    0.5390 H         1 MOL1        0.0928
@<TRIPOS>BOND
     1      1      2 1 
     2      2      3 1 
     3      3      4 ar
     4      4      5 ar
     5      5      6 ar
     6      6      7 1 
     7      7      8 1 
     8      8      9 2 
     9      8     26 1 
    10      9     10 1 
    11     10     11 1 
    12     11     12 1 
    13     12     13 1 
    14     13     14 1 
    15     13     24 1 
    16     14     15 1 
    17     15     16 ar
    18     16     17 ar
    19     17     18 ar
    20     18     19 1 
    21     19     20 1 
    22     20     21 1 
    23     21     22 1 
    24     22     18 ar
    25     22     23 ar
    26     23     15 ar
    27     24     25 1 
    28     25     10 1 
    29     26     27 2 
    30     26     28 1 
    31     28      6 ar
    32     28     29 ar
    33     29      3 ar
    34      1     30 1 
    35      1     31 1 
    36      1     32 1 
    37      4     33 1 
    38      5     34 1 
    39      7     35 1 
    40      7     36 1 
    41      9     37 1 
    42     10     38 1 
    43     11     39 1 
    44     11     40 1 
    45     12     41 1 
    46     12     42 1 
    47     14     43 1 
    48     14     44 1 
    49     16     45 1 
    50     17     46 1 
    51     20     47 1 
    52     20     48 1 
    53     23     49 1 
    54     24     50 1 
    55     24     51 1 
    56     25     52 1 
    57     25     53 1 
    58     29     54 1 
@<TRIPOS>SUBSTRUCTURE
     1 MOL1         1 MOLECULE          1 A
