# Molecule written by the XED library from Cresset
@<TRIPOS>MOLECULE
CHEMBL374184
    56     59      1
SMALL
USER_CHARGES
@<TRIPOS>ATOM
      1 C           -5.9987   -3.1314   -0.1849 C.3       1 MOL1       -0.0957
      2 C           -5.1410   -1.8570   -0.1509 C.3       1 MOL1       -0.0293
      3 O           -3.7419   -2.1948   -0.1725 O.3       1 MOL1       -0.1708
      4 C           -2.8566   -1.1669   -0.1400 C.2       1 MOL1        0.2550
      5 O           -3.3046   -0.0276   -0.1792 O.2       1 MOL1       -0.4122
      6 C           -1.4226   -1.3784   -0.1039 C.2       1 MOL1       -0.0737
      7 C           -0.9401   -2.5197    0.4652 C.2       1 MOL1        0.1195
      8 C           -1.6125   -3.6718    1.1879 C.3       1 MOL1       -0.0659
      9 N            0.4015   -2.7125    0.4752 N.pl3     1 MOL1       -0.1830
     10 C            1.3750   -1.7881    0.1270 C.ar      1 MOL1        0.1818
     11 N            2.6366   -2.1818    0.4067 N.ar      1 MOL1       -0.3798
     12 C            3.6078   -1.3023    0.0881 C.ar      1 MOL1        0.0374
     13 C            5.0380   -1.7197    0.4119 C.3       1 MOL1       -0.0375
     14 C            6.0159   -0.5505    0.6330 C.3       1 MOL1       -0.0839
     15 C            5.9630    0.3373   -0.6206 C.3       1 MOL1       -0.0858
     16 C            4.5263    0.8628   -0.8372 C.3       1 MOL1       -0.0475
     17 C            3.3690   -0.0863   -0.5038 C.ar      1 MOL1       -0.0879
     18 C            2.0532    0.2810   -0.7800 C.ar      1 MOL1        0.0761
     19 N            1.7856    1.5128   -1.3821 N.pl3     1 MOL1       -0.4744
     20 C            1.0193   -0.5805   -0.4470 C.ar      1 MOL1       -0.0694
     21 C           -0.4815   -0.3145   -0.6781 C.3       1 MOL1        0.0589
     22 C           -0.9305    1.1073   -0.3296 C.ar      1 MOL1       -0.0651
     23 C           -0.7674    1.6391    0.9323 C.ar      1 MOL1       -0.0813
     24 C           -1.1687    2.9266    1.2025 C.ar      1 MOL1       -0.0835
     25 C           -1.7478    3.7079    0.2143 C.ar      1 MOL1        0.0583
     26 O           -2.1577    4.9663    0.4210 O.3       1 MOL1       -0.2037
     27 C           -1.9437    5.5685    1.7131 C.3       1 MOL1       -0.0471
     28 C           -1.9164    3.1660   -1.0441 C.ar      1 MOL1       -0.0835
     29 C           -1.5110    1.8818   -1.3123 C.ar      1 MOL1       -0.0813
     30  H          -7.1614   -2.8355   -0.1666 H         1 MOL1        0.0452
     31  H          -5.7606   -3.7378   -1.1909 H         1 MOL1        0.0452
     32  H          -5.7371   -3.8171    0.7647 H         1 MOL1        0.0452
     33  H          -5.4093   -1.1668   -1.0953 H         1 MOL1        0.0640
     34  H          -5.3867   -1.2568    0.8585 H         1 MOL1        0.0640
     35  H          -2.7822   -3.5216    1.3941 H         1 MOL1        0.0476
     36  H          -1.4471   -4.6780    0.5540 H         1 MOL1        0.0476
     37  H          -1.0924   -3.8088    2.2614 H         1 MOL1        0.0476
     38  H           0.6956   -3.4956    0.7496 H         1 MOL1        0.2048
     39  H           5.0267   -2.3979    1.4021 H         1 MOL1        0.0503
     40  H           5.4501   -2.3757   -0.5049 H         1 MOL1        0.0503
     41  H           5.6784    0.0860    1.5925 H         1 MOL1        0.0463
     42  H           7.1300   -0.9697    0.7961 H         1 MOL1        0.0463
     43  H           6.2944   -0.3314   -1.5611 H         1 MOL1        0.0463
     44  H           6.7147    1.2660   -0.5068 H         1 MOL1        0.0463
     45  H           4.4571    1.1852   -1.9920 H         1 MOL1        0.0492
     46  H           4.3911    1.8458   -0.1614 H         1 MOL1        0.0492
     47  H           2.4547    2.0300   -1.6214 H         1 MOL1        0.2750
     48  H           1.0225    1.6209   -1.7994 H         1 MOL1        0.2750
     49  H          -0.5965   -0.4481   -1.8662 H         1 MOL1        0.0580
     50  H          -0.3518    1.0882    1.6552 H         1 MOL1        0.0908
     51  H          -1.0378    3.3011    2.1200 H         1 MOL1        0.0924
     52  H          -0.7678    5.5994    1.9488 H         1 MOL1        0.0618
     53  H          -2.5101    4.9368    2.5611 H         1 MOL1        0.0618
     54  H          -2.3768    6.6879    1.7082 H         1 MOL1        0.0618
     55  H          -2.3351    3.7127   -1.7696 H         1 MOL1        0.0924
     56  H          -1.6366    1.5081   -2.2315 H         1 MOL1        0.0908
@<TRIPOS>BOND
     1      1      2 1 
     2      2      3 1 
     3      3      4 1 
     4      4      5 2 
     5      4      6 1 
     6      6      7 2 
     7      7      8 1 
     8      7      9 1 
     9      9     10 1 
    10     10     11 ar
    11     11     12 ar
    12     12     13 1 
    13     13     14 1 
    14     14     15 1 
    15     15     16 1 
    16     16     17 1 
    17     17     12 ar
    18     17     18 ar
    19     18     19 1 
    20     18     20 ar
    21     20     10 ar
    22     20     21 1 
    23     21      6 1 
    24     21     22 1 
    25     22     23 ar
    26     23     24 ar
    27     24     25 ar
    28     25     26 1 
    29     25     28 ar
    30     26     27 1 
    31     28     29 ar
    32     29     22 ar
    33      1     30 1 
    34      1     31 1 
    35      1     32 1 
    36      2     33 1 
    37      2     34 1 
    38      8     35 1 
    39      8     36 1 
    40      8     37 1 
    41      9     38 1 
    42     13     39 1 
    43     13     40 1 
    44     14     41 1 
    45     14     42 1 
    46     15     43 1 
    47     15     44 1 
    48     16     45 1 
    49     16     46 1 
    50     19     47 1 
    51     19     48 1 
    52     21     49 1 
    53     23     50 1 
    54     24     51 1 
    55     27     52 1 
    56     27     53 1 
    57     27     54 1 
    58     28     55 1 
    59     29     56 1 
@<TRIPOS>SUBSTRUCTURE
     1 MOL1         1 MOLECULE          1 A
