# Molecule written by the XED library from Cresset
@<TRIPOS>MOLECULE
CHEMBL3818415
    52     55      1
SMALL
USER_CHARGES
@<TRIPOS>ATOM
      1 C            6.7439   -3.3814   -0.0143 C.3       1 MOL1       -0.0471
      2 O            7.0381   -1.9787    0.1442 O.3       1 MOL1       -0.1992
      3 C            6.0300   -1.1020    0.1386 C.ar      1 MOL1        0.0820
      4 C            4.7031   -1.4872   -0.0141 C.ar      1 MOL1       -0.0742
      5 C            3.7180   -0.5333   -0.0266 C.ar      1 MOL1       -0.0408
      6 C            2.2173   -0.7153   -0.2045 C.3       1 MOL1       -0.0043
      7 C            1.6578    0.7004   -0.2073 C.2       1 MOL1       -0.0313
      8 C            0.4820    1.2736   -0.4673 C.2       1 MOL1       -0.0523
      9 C           -0.8649    0.6770   -0.8174 C.3       1 MOL1       -0.0233
     10 C           -1.9782    1.3825   -0.0206 C.3       1 MOL1       -0.0701
     11 C           -3.3471    0.9043   -0.5455 C.3       1 MOL1       -0.0455
     12 N           -3.5223   -0.5565   -0.4078 N.3       1 MOL1       -0.2520
     13 C           -4.8115   -0.9797   -0.9924 C.3       1 MOL1       -0.0032
     14 C           -6.0749   -0.4980   -0.2898 C.ar      1 MOL1       -0.0509
     15 C           -6.6870    0.6715   -0.6853 C.ar      1 MOL1       -0.0846
     16 C           -7.8370    1.0994   -0.0616 C.ar      1 MOL1       -0.0900
     17 C           -8.3837    0.3554    0.9586 C.ar      1 MOL1       -0.0906
     18 C           -7.7789   -0.8154    1.3557 C.ar      1 MOL1       -0.0900
     19 C           -6.6267   -1.2391    0.7331 C.ar      1 MOL1       -0.0846
     20 C           -2.4204   -1.2706   -1.0843 C.3       1 MOL1       -0.0455
     21 C           -1.0219   -0.8398   -0.5930 C.3       1 MOL1       -0.0701
     22 C            2.8028    1.5530    0.0541 C.2       1 MOL1        0.1999
     23 O            2.7934    2.7677    0.1902 O.2       1 MOL1       -0.3896
     24 C            4.0406    0.7958    0.1239 C.ar      1 MOL1       -0.0048
     25 C            5.3545    1.2085    0.2826 C.ar      1 MOL1       -0.0547
     26 C            6.3395    0.2501    0.2829 C.ar      1 MOL1        0.0625
     27 O            7.6429    0.6259    0.4186 O.3       1 MOL1       -0.3817
     28  H           6.0489   -3.7478    0.8922 H         1 MOL1        0.0618
     29  H           6.1814   -3.5681   -1.0574 H         1 MOL1        0.0618
     30  H           7.7708   -4.0030   -0.0021 H         1 MOL1        0.0618
     31  H           4.4660   -2.4515   -0.1218 H         1 MOL1        0.0926
     32  H           1.7807   -1.3472    0.7175 H         1 MOL1        0.0524
     33  H           2.0172   -1.2720   -1.2476 H         1 MOL1        0.0524
     34  H           0.4900    2.2623   -0.4186 H         1 MOL1        0.0887
     35  H          -1.0608    0.9264   -1.9745 H         1 MOL1        0.0514
     36  H          -1.8746    1.1153    1.1452 H         1 MOL1        0.0476
     37  H          -1.8990    2.5711   -0.1695 H         1 MOL1        0.0476
     38  H          -3.4478    1.2201   -1.6990 H         1 MOL1        0.0568
     39  H          -4.1956    1.4683    0.0877 H         1 MOL1        0.0568
     40  H          -4.8600   -2.1799   -0.9814 H         1 MOL1        0.0598
     41  H          -4.8558   -0.6398   -2.1425 H         1 MOL1        0.0598
     42  H          -6.2932    1.2124   -1.4289 H         1 MOL1        0.0908
     43  H          -8.2752    1.9507   -0.3509 H         1 MOL1        0.0906
     44  H          -9.2202    0.6646    1.4109 H         1 MOL1        0.0906
     45  H          -8.1771   -1.3572    2.0964 H         1 MOL1        0.0906
     46  H          -6.1893   -2.0910    1.0224 H         1 MOL1        0.0908
     47  H          -2.4767   -1.0565   -2.2632 H         1 MOL1        0.0568
     48  H          -2.5328   -2.4509   -0.8990 H         1 MOL1        0.0568
     49  H          -0.9011   -1.0939    0.5735 H         1 MOL1        0.0476
     50  H          -0.2088   -1.4482   -1.2278 H         1 MOL1        0.0476
     51  H           5.5810    2.1771    0.3860 H         1 MOL1        0.0928
     52  H           7.7307    1.6233    0.5189 H         1 MOL1        0.3295
@<TRIPOS>BOND
     1      1      2 1 
     2      2      3 1 
     3      3      4 ar
     4      4      5 ar
     5      5      6 1 
     6      6      7 1 
     7      7      8 2 
     8      7     22 1 
     9      8      9 1 
    10      9     10 1 
    11     10     11 1 
    12     11     12 1 
    13     12     13 1 
    14     12     20 1 
    15     13     14 1 
    16     14     15 ar
    17     15     16 ar
    18     16     17 ar
    19     17     18 ar
    20     18     19 ar
    21     19     14 ar
    22     20     21 1 
    23     21      9 1 
    24     22     23 2 
    25     22     24 1 
    26     24      5 ar
    27     24     25 ar
    28     25     26 ar
    29     26      3 ar
    30     26     27 1 
    31      1     28 1 
    32      1     29 1 
    33      1     30 1 
    34      4     31 1 
    35      6     32 1 
    36      6     33 1 
    37      8     34 1 
    38      9     35 1 
    39     10     36 1 
    40     10     37 1 
    41     11     38 1 
    42     11     39 1 
    43     13     40 1 
    44     13     41 1 
    45     15     42 1 
    46     16     43 1 
    47     17     44 1 
    48     18     45 1 
    49     19     46 1 
    50     20     47 1 
    51     20     48 1 
    52     21     49 1 
    53     21     50 1 
    54     25     51 1 
    55     27     52 1 
@<TRIPOS>SUBSTRUCTURE
     1 MOL1         1 MOLECULE          1 A
