# Molecule written by the XED library from Cresset
@<TRIPOS>MOLECULE
CHEMBL475161
    55     58      1
SMALL
USER_CHARGES
@<TRIPOS>ATOM
      1 C            4.1616   -4.3085   -0.3487 C.3       1 MOL1       -0.0471
      2 O            5.0098   -3.1562   -0.1632 O.3       1 MOL1       -0.1993
      3 C            4.4472   -1.9461   -0.0766 C.ar      1 MOL1        0.0824
      4 C            3.0735   -1.7630   -0.1881 C.ar      1 MOL1       -0.0742
      5 C            2.5419   -0.5045   -0.0884 C.ar      1 MOL1       -0.0420
      6 C            1.0903   -0.0550   -0.1924 C.3       1 MOL1       -0.0041
      7 C            1.1333    1.4509    0.0379 C.2       1 MOL1       -0.0323
      8 C            0.2527    2.4689    0.1222 C.2       1 MOL1       -0.0234
      9 C           -1.2068    2.3466   -0.0830 C.ar      1 MOL1       -0.0255
     10 C           -1.9596    3.5012    0.0530 C.ar      1 MOL1       -0.0708
     11 C           -3.3139    3.4809   -0.1628 C.ar      1 MOL1       -0.0886
     12 C           -3.9377    2.3090   -0.5225 C.ar      1 MOL1       -0.0739
     13 C           -3.2119    1.1433   -0.6505 C.ar      1 MOL1       -0.0490
     14 C           -3.8825   -0.1605   -1.0688 C.3       1 MOL1       -0.0031
     15 N           -4.7128   -0.8054   -0.0284 N.3       1 MOL1       -0.2521
     16 C           -6.1169   -0.3540   -0.1352 C.3       1 MOL1       -0.0469
     17 C           -7.0087   -0.9951    0.9463 C.3       1 MOL1       -0.0785
     18 C           -6.9558   -2.5269    0.8060 C.3       1 MOL1       -0.0843
     19 C           -5.4912   -2.9896    0.9039 C.3       1 MOL1       -0.0785
     20 C           -4.6462   -2.2732   -0.1699 C.3       1 MOL1       -0.0469
     21 C           -1.8539    1.1670   -0.4255 C.ar      1 MOL1       -0.0652
     22 C            2.5328    1.7529    0.2167 C.2       1 MOL1        0.1921
     23 O            3.0179    2.8585    0.4152 O.2       1 MOL1       -0.3952
     24 C            3.3705    0.5680    0.1330 C.ar      1 MOL1       -0.0045
     25 C            4.7436    0.4170    0.2397 C.ar      1 MOL1       -0.0552
     26 C            5.2854   -0.8474    0.1302 C.ar      1 MOL1        0.0721
     27 O            6.6107   -1.0645    0.2178 O.3       1 MOL1       -0.2025
     28 C            7.4933    0.0652    0.3784 C.3       1 MOL1       -0.0471
     29  H           3.5590   -4.2094   -1.3827 H         1 MOL1        0.0618
     30  H           4.8437   -5.2955   -0.3827 H         1 MOL1        0.0618
     31  H           3.3846   -4.3944    0.5633 H         1 MOL1        0.0618
     32  H           2.4699   -2.5448   -0.3421 H         1 MOL1        0.0926
     33  H           0.4181   -0.5953    0.6420 H         1 MOL1        0.0524
     34  H           0.6789   -0.3018   -1.2926 H         1 MOL1        0.0524
     35  H           0.6155    3.3704    0.3189 H         1 MOL1        0.0912
     36  H          -1.5118    4.3592    0.3033 H         1 MOL1        0.0910
     37  H          -3.8468    4.3210   -0.0656 H         1 MOL1        0.0906
     38  H          -4.9206    2.3091   -0.6958 H         1 MOL1        0.0908
     39  H          -4.5173    0.0351   -2.0688 H         1 MOL1        0.0598
     40  H          -2.9955   -0.9051   -1.3865 H         1 MOL1        0.0598
     41  H          -6.1953    0.8340   -0.0050 H         1 MOL1        0.0568
     42  H          -6.5601   -0.6667   -1.2055 H         1 MOL1        0.0568
     43  H          -8.1401   -0.6184    0.8093 H         1 MOL1        0.0471
     44  H          -6.6077   -0.6792    2.0323 H         1 MOL1        0.0471
     45  H          -7.4028   -2.8437   -0.2621 H         1 MOL1        0.0460
     46  H          -7.6037   -3.0363    1.6784 H         1 MOL1        0.0460
     47  H          -5.4312   -4.1766    0.7401 H         1 MOL1        0.0471
     48  H          -5.0654   -2.7151    1.9916 H         1 MOL1        0.0471
     49  H          -3.5153   -2.6536   -0.0417 H         1 MOL1        0.0568
     50  H          -5.0491   -2.5791   -1.2578 H         1 MOL1        0.0568
     51  H          -1.3270    0.3253   -0.5231 H         1 MOL1        0.0912
     52  H           5.3287    1.2129    0.3940 H         1 MOL1        0.0928
     53  H           8.6291   -0.3212    0.4044 H         1 MOL1        0.0618
     54  H           7.3547    0.8286   -0.5382 H         1 MOL1        0.0618
     55  H           7.2440    0.6273    1.4087 H         1 MOL1        0.0618
@<TRIPOS>BOND
     1      1      2 1 
     2      2      3 1 
     3      3      4 ar
     4      4      5 ar
     5      5      6 1 
     6      6      7 1 
     7      7      8 2 
     8      7     22 1 
     9      8      9 1 
    10      9     10 ar
    11     10     11 ar
    12     11     12 ar
    13     12     13 ar
    14     13     14 1 
    15     13     21 ar
    16     14     15 1 
    17     15     16 1 
    18     16     17 1 
    19     17     18 1 
    20     18     19 1 
    21     19     20 1 
    22     20     15 1 
    23     21      9 ar
    24     22     23 2 
    25     22     24 1 
    26     24      5 ar
    27     24     25 ar
    28     25     26 ar
    29     26      3 ar
    30     26     27 1 
    31     27     28 1 
    32      1     29 1 
    33      1     30 1 
    34      1     31 1 
    35      4     32 1 
    36      6     33 1 
    37      6     34 1 
    38      8     35 1 
    39     10     36 1 
    40     11     37 1 
    41     12     38 1 
    42     14     39 1 
    43     14     40 1 
    44     16     41 1 
    45     16     42 1 
    46     17     43 1 
    47     17     44 1 
    48     18     45 1 
    49     18     46 1 
    50     19     47 1 
    51     19     48 1 
    52     20     49 1 
    53     20     50 1 
    54     21     51 1 
    55     25     52 1 
    56     28     53 1 
    57     28     54 1 
    58     28     55 1 
@<TRIPOS>SUBSTRUCTURE
     1 MOL1         1 MOLECULE          1 A
