# Molecule written by the XED library from Cresset
@<TRIPOS>MOLECULE
CHEMBL465027
    52     55      1
SMALL
USER_CHARGES
@<TRIPOS>ATOM
      1 C            4.1628   -4.2028    0.2013 C.3       1 MOL1       -0.0471
      2 O            4.9514   -3.0023    0.0754 O.3       1 MOL1       -0.1993
      3 C            4.3298   -1.8187    0.0314 C.ar      1 MOL1        0.0824
      4 C            2.9467   -1.7115    0.1236 C.ar      1 MOL1       -0.0742
      5 C            2.3568   -0.4763    0.0725 C.ar      1 MOL1       -0.0420
      6 C            0.8836   -0.1105    0.1684 C.3       1 MOL1       -0.0041
      7 C            0.8470    1.4057    0.0191 C.2       1 MOL1       -0.0323
      8 C           -0.0921    2.3724   -0.0434 C.2       1 MOL1       -0.0234
      9 C           -1.5480    2.1465    0.0905 C.ar      1 MOL1       -0.0255
     10 C           -2.3808    3.2474   -0.0308 C.ar      1 MOL1       -0.0708
     11 C           -3.7393    3.1139    0.1138 C.ar      1 MOL1       -0.0886
     12 C           -4.2855    1.8795    0.3856 C.ar      1 MOL1       -0.0739
     13 C           -3.4770    0.7677    0.4994 C.ar      1 MOL1       -0.0490
     14 C           -4.0644   -0.6038    0.8177 C.3       1 MOL1       -0.0031
     15 N           -4.9580   -1.1888   -0.2031 N.3       1 MOL1       -0.2522
     16 C           -5.1153   -2.6276    0.0229 C.3       1 MOL1       -0.0465
     17 C           -6.3456   -2.9371   -0.8379 C.3       1 MOL1       -0.0748
     18 C           -7.2273   -1.6826   -0.7049 C.3       1 MOL1       -0.0748
     19 C           -6.2956   -0.5745   -0.1730 C.3       1 MOL1       -0.0465
     20 C           -2.1162    0.9073    0.3487 C.ar      1 MOL1       -0.0652
     21 C            2.2321    1.7914   -0.1097 C.2       1 MOL1        0.1921
     22 O            2.6588    2.9319   -0.2332 O.2       1 MOL1       -0.3952
     23 C            3.1308    0.6483   -0.0770 C.ar      1 MOL1       -0.0045
     24 C            4.5110    0.5705   -0.1724 C.ar      1 MOL1       -0.0552
     25 C            5.1140   -0.6700   -0.1158 C.ar      1 MOL1        0.0721
     26 O            6.4492   -0.8185   -0.1999 O.3       1 MOL1       -0.2025
     27 C            7.2753    0.3568   -0.3224 C.3       1 MOL1       -0.0471
     28  H           3.4054   -4.2904   -0.7260 H         1 MOL1        0.0618
     29  H           4.8968   -5.1526    0.2093 H         1 MOL1        0.0618
     30  H           3.5382   -4.1763    1.2254 H         1 MOL1        0.0618
     31  H           2.3815   -2.5292    0.2268 H         1 MOL1        0.0926
     32  H           0.4786   -0.4393    1.2494 H         1 MOL1        0.0524
     33  H           0.2556   -0.6435   -0.7046 H         1 MOL1        0.0524
     34  H           0.2191    3.3034   -0.1793 H         1 MOL1        0.0912
     35  H          -1.9881    4.1476   -0.2194 H         1 MOL1        0.0910
     36  H          -4.3318    3.9149    0.0274 H         1 MOL1        0.0906
     37  H          -5.2742    1.7913    0.5028 H         1 MOL1        0.0908
     38  H          -3.1444   -1.3663    0.9440 H         1 MOL1        0.0598
     39  H          -4.6127   -0.5590    1.8844 H         1 MOL1        0.0598
     40  H          -5.3798   -2.8437    1.1738 H         1 MOL1        0.0568
     41  H          -4.1462   -3.2484   -0.3181 H         1 MOL1        0.0568
     42  H          -6.9087   -3.9262   -0.4581 H         1 MOL1        0.0471
     43  H          -5.9953   -3.0697   -1.9780 H         1 MOL1        0.0471
     44  H          -7.7080   -1.3840   -1.7637 H         1 MOL1        0.0471
     45  H          -8.1069   -1.8941    0.0847 H         1 MOL1        0.0471
     46  H          -6.3363    0.3998   -0.8725 H         1 MOL1        0.0568
     47  H          -6.6406   -0.2913    0.9417 H         1 MOL1        0.0568
     48  H          -1.5289    0.1051    0.4362 H         1 MOL1        0.0912
     49  H           5.0566    1.4007   -0.2807 H         1 MOL1        0.0928
     50  H           8.4297    0.0309   -0.3669 H         1 MOL1        0.0618
     51  H           7.1029    1.0713    0.6263 H         1 MOL1        0.0618
     52  H           6.9907    0.9470   -1.3279 H         1 MOL1        0.0618
@<TRIPOS>BOND
     1      1      2 1 
     2      2      3 1 
     3      3      4 ar
     4      4      5 ar
     5      5      6 1 
     6      6      7 1 
     7      7      8 2 
     8      7     21 1 
     9      8      9 1 
    10      9     10 ar
    11     10     11 ar
    12     11     12 ar
    13     12     13 ar
    14     13     14 1 
    15     13     20 ar
    16     14     15 1 
    17     15     16 1 
    18     16     17 1 
    19     17     18 1 
    20     18     19 1 
    21     19     15 1 
    22     20      9 ar
    23     21     22 2 
    24     21     23 1 
    25     23      5 ar
    26     23     24 ar
    27     24     25 ar
    28     25      3 ar
    29     25     26 1 
    30     26     27 1 
    31      1     28 1 
    32      1     29 1 
    33      1     30 1 
    34      4     31 1 
    35      6     32 1 
    36      6     33 1 
    37      8     34 1 
    38     10     35 1 
    39     11     36 1 
    40     12     37 1 
    41     14     38 1 
    42     14     39 1 
    43     16     40 1 
    44     16     41 1 
    45     17     42 1 
    46     17     43 1 
    47     18     44 1 
    48     18     45 1 
    49     19     46 1 
    50     19     47 1 
    51     20     48 1 
    52     24     49 1 
    53     27     50 1 
    54     27     51 1 
    55     27     52 1 
@<TRIPOS>SUBSTRUCTURE
     1 MOL1         1 MOLECULE          1 A
