# Molecule written by the XED library from Cresset
@<TRIPOS>MOLECULE
CHEMBL601282
    47     49      1
SMALL
USER_CHARGES
@<TRIPOS>ATOM
      1 C           -7.0759    1.0034   -0.3098 C.3       1 MOL1       -0.1072
      2 C           -5.6976    1.1983    0.3494 C.3       1 MOL1       -0.0525
      3 N           -4.8312    0.0028    0.2872 N.3       1 MOL1       -0.2564
      4 C           -5.3940   -1.0955    1.1025 C.3       1 MOL1       -0.0525
      5 C           -5.9600   -2.1810    0.1713 C.3       1 MOL1       -0.1072
      6 C           -3.4706    0.3455    0.7442 C.3       1 MOL1       -0.0222
      7 C           -2.4191   -0.7043    0.3260 C.3       1 MOL1        0.0823
      8 N           -1.0594   -0.1481    0.3626 N.am      1 MOL1       -0.3916
      9 C           -0.0152   -0.8841   -0.0831 C.2       1 MOL1        0.4237
     10 O           -0.1706   -2.0623   -0.4075 O.2       1 MOL1       -0.4490
     11 N            1.2192   -0.3039   -0.1241 N.am      1 MOL1       -0.0610
     12 C            2.3893   -1.1014   -0.0981 C.ar      1 MOL1        0.0828
     13 C            2.4900   -2.2535   -0.8595 C.ar      1 MOL1       -0.0976
     14 C            3.6296   -3.0241   -0.8214 C.ar      1 MOL1       -0.0931
     15 C            4.6906   -2.6586   -0.0234 C.ar      1 MOL1       -0.1139
     16 C            4.6147   -1.5148    0.7395 C.ar      1 MOL1       -0.0740
     17 C            3.4739   -0.7512    0.6942 C.ar      1 MOL1        0.0260
     18 S            3.3846    0.7504    1.6699 S.3       1 MOL1       -0.1317
     19 C            2.3338    1.7415    0.6094 C.ar      1 MOL1        0.0260
     20 C            2.4996    3.1046    0.5754 C.ar      1 MOL1       -0.0740
     21 C            1.7108    3.8582   -0.2653 C.ar      1 MOL1       -0.1139
     22 C            0.7707    3.2438   -1.0626 C.ar      1 MOL1       -0.0931
     23 C            0.6093    1.8781   -1.0195 C.ar      1 MOL1       -0.0976
     24 C            1.3848    1.1024   -0.1742 C.ar      1 MOL1        0.0828
     25  H          -7.6120    2.0727   -0.4044 H         1 MOL1        0.0444
     26  H          -6.9321    0.5392   -1.4071 H         1 MOL1        0.0444
     27  H          -7.7725    0.2845    0.3511 H         1 MOL1        0.0444
     28  H          -5.8328    1.5602    1.4859 H         1 MOL1        0.0566
     29  H          -5.1874    2.0937   -0.2661 H         1 MOL1        0.0566
     30  H          -4.5614   -1.6304    1.7797 H         1 MOL1        0.0566
     31  H          -6.2573   -0.7225    1.8483 H         1 MOL1        0.0566
     32  H          -6.8000   -1.7214   -0.5507 H         1 MOL1        0.0444
     33  H          -5.0696   -2.6285   -0.4973 H         1 MOL1        0.0444
     34  H          -6.4403   -3.0611    0.8307 H         1 MOL1        0.0444
     35  H          -3.4489    0.5145    1.9324 H         1 MOL1        0.0581
     36  H          -3.1272    1.3657    0.2135 H         1 MOL1        0.0581
     37  H          -2.6518   -1.0527   -0.7984 H         1 MOL1        0.0600
     38  H          -2.4492   -1.6631    1.0460 H         1 MOL1        0.0600
     39  H          -0.9257    0.6591    0.6846 H         1 MOL1        0.2045
     40  H           1.7260   -2.5303   -1.4421 H         1 MOL1        0.0919
     41  H           3.6874   -3.8543   -1.3759 H         1 MOL1        0.0906
     42  H           5.5161   -3.2226    0.0012 H         1 MOL1        0.0906
     43  H           5.3828   -1.2416    1.3185 H         1 MOL1        0.0925
     44  H           3.1886    3.5446    1.1512 H         1 MOL1        0.0925
     45  H           1.8228    4.8513   -0.2993 H         1 MOL1        0.0906
     46  H           0.2022    3.7929   -1.6751 H         1 MOL1        0.0906
     47  H          -0.0772    1.4417   -1.6014 H         1 MOL1        0.0919
@<TRIPOS>BOND
     1      1      2 1 
     2      2      3 1 
     3      3      4 1 
     4      3      6 1 
     5      4      5 1 
     6      6      7 1 
     7      7      8 1 
     8      8      9 am
     9      9     10 2 
    10      9     11 am
    11     11     12 1 
    12     12     13 ar
    13     13     14 ar
    14     14     15 ar
    15     15     16 ar
    16     16     17 ar
    17     17     12 ar
    18     17     18 1 
    19     18     19 1 
    20     19     20 ar
    21     20     21 ar
    22     21     22 ar
    23     22     23 ar
    24     23     24 ar
    25     24     11 1 
    26     24     19 ar
    27      1     25 1 
    28      1     26 1 
    29      1     27 1 
    30      2     28 1 
    31      2     29 1 
    32      4     30 1 
    33      4     31 1 
    34      5     32 1 
    35      5     33 1 
    36      5     34 1 
    37      6     35 1 
    38      6     36 1 
    39      7     37 1 
    40      7     38 1 
    41      8     39 1 
    42     13     40 1 
    43     14     41 1 
    44     15     42 1 
    45     16     43 1 
    46     20     44 1 
    47     21     45 1 
    48     22     46 1 
    49     23     47 1 
@<TRIPOS>SUBSTRUCTURE
     1 MOL1         1 MOLECULE          1 A
