# Molecule written by the XED library from Cresset
@<TRIPOS>MOLECULE
CHEMBL462872
    48     50      1
SMALL
USER_CHARGES
@<TRIPOS>ATOM
      1 C            4.0804   -3.9278   -0.1862 C.3       1 MOL1       -0.0471
      2 O            4.7224   -2.6407   -0.0828 O.3       1 MOL1       -0.1993
      3 C            3.9646   -1.5390   -0.0494 C.ar      1 MOL1        0.0824
      4 C            2.5775   -1.5980   -0.1258 C.ar      1 MOL1       -0.0742
      5 C            1.8423   -0.4424   -0.0848 C.ar      1 MOL1       -0.0420
      6 C            0.3337   -0.2518   -0.1672 C.3       1 MOL1       -0.0041
      7 C            0.1235    1.2506   -0.0276 C.2       1 MOL1       -0.0323
      8 C           -0.9203    2.1005    0.0583 C.2       1 MOL1       -0.0234
      9 C           -2.3426    1.7047   -0.0328 C.ar      1 MOL1       -0.0255
     10 C           -3.2902    2.7024    0.1317 C.ar      1 MOL1       -0.0708
     11 C           -4.6294    2.4181    0.0364 C.ar      1 MOL1       -0.0886
     12 C           -5.0429    1.1320   -0.2281 C.ar      1 MOL1       -0.0739
     13 C           -4.1170    0.1225   -0.3890 C.ar      1 MOL1       -0.0490
     14 C           -4.5636   -1.2997   -0.6953 C.3       1 MOL1       -0.0040
     15 N           -5.2578   -1.9277    0.4465 N.3       1 MOL1       -0.2617
     16 C           -4.7383   -3.2817    0.6778 C.3       1 MOL1       -0.0710
     17 C           -6.7050   -1.9924    0.1938 C.3       1 MOL1       -0.0710
     18 C           -2.7756    0.4109   -0.2874 C.ar      1 MOL1       -0.0652
     19 C            1.4548    1.7981    0.0728 C.2       1 MOL1        0.1921
     20 O            1.7451    2.9825    0.1793 O.2       1 MOL1       -0.3952
     21 C            2.4803    0.7678    0.0391 C.ar      1 MOL1       -0.0045
     22 C            3.8611    0.8574    0.1112 C.ar      1 MOL1       -0.0552
     23 C            4.6076   -0.3025    0.0639 C.ar      1 MOL1        0.0721
     24 O            5.9520   -0.2860    0.1231 O.3       1 MOL1       -0.2025
     25 C            6.6308    0.9839    0.2036 C.3       1 MOL1       -0.0471
     26  H           3.4523   -3.9828   -1.2071 H         1 MOL1        0.0618
     27  H           3.3459   -4.0921    0.7487 H         1 MOL1        0.0618
     28  H           4.9171   -4.7881   -0.1888 H         1 MOL1        0.0618
     29  H           2.1137   -2.4793   -0.2123 H         1 MOL1        0.0926
     30  H          -0.2277   -0.8460    0.7114 H         1 MOL1        0.0524
     31  H          -0.0458   -0.6258   -1.2424 H         1 MOL1        0.0524
     32  H          -0.7171    3.0623    0.1837 H         1 MOL1        0.0912
     33  H          -2.9950    3.6395    0.3180 H         1 MOL1        0.0910
     34  H          -5.3048    3.1460    0.1551 H         1 MOL1        0.0906
     35  H          -6.0185    0.9329   -0.3048 H         1 MOL1        0.0908
     36  H          -3.5868   -1.9317   -0.9952 H         1 MOL1        0.0598
     37  H          -5.2647   -1.2698   -1.6696 H         1 MOL1        0.0598
     38  H          -5.3375   -3.8036    1.5772 H         1 MOL1        0.0543
     39  H          -4.8680   -3.9378   -0.3186 H         1 MOL1        0.0543
     40  H          -3.5770   -3.2302    0.9768 H         1 MOL1        0.0543
     41  H          -7.2683   -2.4011    1.1712 H         1 MOL1        0.0543
     42  H          -6.9306   -2.7353   -0.7218 H         1 MOL1        0.0543
     43  H          -7.1352   -0.9048   -0.0691 H         1 MOL1        0.0543
     44  H          -2.1078   -0.3215   -0.4069 H         1 MOL1        0.0912
     45  H           4.3053    1.7491    0.1955 H         1 MOL1        0.0928
     46  H           7.8164    0.7997    0.2247 H         1 MOL1        0.0618
     47  H           6.3008    1.5542    1.2064 H         1 MOL1        0.0618
     48  H           6.3512    1.6554   -0.7514 H         1 MOL1        0.0618
@<TRIPOS>BOND
     1      1      2 1 
     2      2      3 1 
     3      3      4 ar
     4      4      5 ar
     5      5      6 1 
     6      6      7 1 
     7      7      8 2 
     8      7     19 1 
     9      8      9 1 
    10      9     10 ar
    11     10     11 ar
    12     11     12 ar
    13     12     13 ar
    14     13     14 1 
    15     13     18 ar
    16     14     15 1 
    17     15     16 1 
    18     15     17 1 
    19     18      9 ar
    20     19     20 2 
    21     19     21 1 
    22     21      5 ar
    23     21     22 ar
    24     22     23 ar
    25     23      3 ar
    26     23     24 1 
    27     24     25 1 
    28      1     26 1 
    29      1     27 1 
    30      1     28 1 
    31      4     29 1 
    32      6     30 1 
    33      6     31 1 
    34      8     32 1 
    35     10     33 1 
    36     11     34 1 
    37     12     35 1 
    38     14     36 1 
    39     14     37 1 
    40     16     38 1 
    41     16     39 1 
    42     16     40 1 
    43     17     41 1 
    44     17     42 1 
    45     17     43 1 
    46     18     44 1 
    47     22     45 1 
    48     25     46 1 
    49     25     47 1 
    50     25     48 1 
@<TRIPOS>SUBSTRUCTURE
     1 MOL1         1 MOLECULE          1 A
