# Molecule written by the XED library from Cresset
@<TRIPOS>MOLECULE
CHEMBL50
    32     34      1
SMALL
USER_CHARGES
@<TRIPOS>ATOM
      1 O           -0.6016    2.8215    0.2991 O.3       1 MOL1       -0.3737
      2 C            0.1281    1.6500    0.1251 C.2       1 MOL1        0.0782
      3 C           -0.4467    0.4081   -0.0026 C.2       1 MOL1        0.1083
      4 O            0.2747   -0.7645   -0.0858 O.3       1 MOL1       -0.1158
      5 C            1.6295   -0.6914   -0.0733 C.ar      1 MOL1        0.0980
      6 C            2.3492   -1.8701   -0.1451 C.ar      1 MOL1       -0.0879
      7 C            3.7265   -1.8615   -0.1390 C.ar      1 MOL1        0.0662
      8 O            4.4150   -3.0289   -0.2063 O.3       1 MOL1       -0.3820
      9 C            4.4133   -0.6576   -0.0637 C.ar      1 MOL1       -0.0871
     10 C            3.7222    0.5231    0.0087 C.ar      1 MOL1        0.0835
     11 O            4.3914    1.7006    0.0838 O.3       1 MOL1       -0.3800
     12 C            2.3209    0.5158    0.0085 C.ar      1 MOL1        0.0132
     13 C            1.5473    1.7340    0.1016 C.2       1 MOL1        0.1908
     14 O            2.0867    2.8390    0.1724 O.2       1 MOL1       -0.4349
     15 C           -1.9178    0.2298   -0.0618 C.ar      1 MOL1       -0.0139
     16 C           -2.7966    1.2327   -0.4494 C.ar      1 MOL1       -0.0859
     17 C           -4.1519    1.0080   -0.4906 C.ar      1 MOL1       -0.0794
     18 C           -4.6592   -0.2300   -0.1568 C.ar      1 MOL1        0.0611
     19 O           -6.0005   -0.4558   -0.1946 O.3       1 MOL1       -0.3792
     20 C           -3.7952   -1.2487    0.2145 C.ar      1 MOL1        0.0581
     21 O           -4.2875   -2.4797    0.5304 O.3       1 MOL1       -0.3817
     22 C           -2.4420   -1.0161    0.2605 C.ar      1 MOL1       -0.0680
     23  H          -1.4572    2.6531    0.7994 H         1 MOL1        0.3295
     24  H           1.8624   -2.7418   -0.2015 H         1 MOL1        0.0942
     25  H           3.7961   -3.8211   -0.2493 H         1 MOL1        0.3295
     26  H           5.4134   -0.6520   -0.0614 H         1 MOL1        0.0942
     27  H           5.3879    1.5610    0.0740 H         1 MOL1        0.3295
     28  H          -2.4431    2.1308   -0.7071 H         1 MOL1        0.0910
     29  H          -4.7714    1.7433   -0.7660 H         1 MOL1        0.0924
     30  H          -6.5047    0.3673   -0.4786 H         1 MOL1        0.3295
     31  H          -5.2896   -2.5073    0.4455 H         1 MOL1        0.3295
     32  H          -1.8243   -1.7554    0.5289 H         1 MOL1        0.0928
@<TRIPOS>BOND
     1      1      2 1 
     2      2      3 2 
     3      3      4 1 
     4      3     15 1 
     5      4      5 1 
     6      5      6 ar
     7      6      7 ar
     8      7      8 1 
     9      7      9 ar
    10      9     10 ar
    11     10     11 1 
    12     10     12 ar
    13     12      5 ar
    14     12     13 1 
    15     13      2 1 
    16     13     14 2 
    17     15     16 ar
    18     16     17 ar
    19     17     18 ar
    20     18     19 1 
    21     18     20 ar
    22     20     21 1 
    23     20     22 ar
    24     22     15 ar
    25      1     23 1 
    26      6     24 1 
    27      8     25 1 
    28      9     26 1 
    29     11     27 1 
    30     16     28 1 
    31     17     29 1 
    32     19     30 1 
    33     21     31 1 
    34     22     32 1 
@<TRIPOS>SUBSTRUCTURE
     1 MOL1         1 MOLECULE          1 A
