# Molecule written by the XED library from Cresset
@<TRIPOS>MOLECULE
CHEMBL3819155
    52     55      1
SMALL
USER_CHARGES
@<TRIPOS>ATOM
      1 C           -8.0226    0.3450    0.4472 C.3       1 MOL1       -0.0471
      2 O           -7.2860   -0.8905    0.3465 O.3       1 MOL1       -0.2025
      3 C           -5.9489   -0.8370    0.2170 C.ar      1 MOL1        0.0709
      4 C           -5.2525    0.3537    0.2005 C.ar      1 MOL1       -0.0542
      5 C           -3.8736    0.3168    0.0539 C.ar      1 MOL1       -0.0047
      6 C           -2.8961    1.3892   -0.0172 C.2       1 MOL1        0.1999
      7 O           -3.2275    2.5612    0.0928 O.2       1 MOL1       -0.3896
      8 C           -1.5529    0.8874   -0.2391 C.2       1 MOL1       -0.0313
      9 C           -0.5746    1.7648   -0.4653 C.2       1 MOL1       -0.0523
     10 C            0.8997    1.5799   -0.7549 C.3       1 MOL1       -0.0233
     11 C            1.4431    0.1412   -0.6452 C.3       1 MOL1       -0.0701
     12 C            2.9507    0.1416   -0.9777 C.3       1 MOL1       -0.0455
     13 N            3.7258    1.0360   -0.0919 N.3       1 MOL1       -0.2520
     14 C            5.1541    1.0280   -0.4696 C.3       1 MOL1       -0.0032
     15 C            5.9237   -0.2400   -0.1236 C.ar      1 MOL1       -0.0509
     16 C            6.0504   -1.2599   -1.0415 C.ar      1 MOL1       -0.0846
     17 C            6.7611   -2.3958   -0.7260 C.ar      1 MOL1       -0.0900
     18 C            7.3532   -2.5164    0.5102 C.ar      1 MOL1       -0.0906
     19 C            7.2305   -1.5010    1.4303 C.ar      1 MOL1       -0.0900
     20 C            6.5176   -0.3670    1.1133 C.ar      1 MOL1       -0.0846
     21 C            3.1999    2.4117   -0.1770 C.3       1 MOL1       -0.0455
     22 C            1.7070    2.4774    0.2011 C.3       1 MOL1       -0.0701
     23 C           -1.6895   -0.6280   -0.2220 C.3       1 MOL1       -0.0043
     24 C           -3.1864   -0.8695   -0.0710 C.ar      1 MOL1       -0.0408
     25 C           -3.8720   -2.0558   -0.0513 C.ar      1 MOL1       -0.0747
     26 C           -5.2494   -2.0372    0.0911 C.ar      1 MOL1        0.0737
     27 O           -5.9368   -3.2082    0.1057 O.3       1 MOL1       -0.3785
     28  H          -9.1937    0.1028    0.5487 H         1 MOL1        0.0618
     29  H          -7.6554    0.9533    1.4143 H         1 MOL1        0.0618
     30  H          -7.8375    1.0079   -0.5364 H         1 MOL1        0.0618
     31  H          -5.7296    1.2280    0.2882 H         1 MOL1        0.0928
     32  H          -0.8626    2.7111   -0.4329 H         1 MOL1        0.0887
     33  H           1.1000    1.9758   -1.8699 H         1 MOL1        0.0514
     34  H           0.8915   -0.5669   -1.4395 H         1 MOL1        0.0476
     35  H           1.2702   -0.2752    0.4669 H         1 MOL1        0.0476
     36  H           3.0738    0.4984   -2.1168 H         1 MOL1        0.0568
     37  H           3.3608   -0.9802   -0.8710 H         1 MOL1        0.0568
     38  H           5.7134    1.9159    0.1154 H         1 MOL1        0.0598
     39  H           5.2669    1.2619   -1.6421 H         1 MOL1        0.0598
     40  H           5.6242   -1.1739   -1.9421 H         1 MOL1        0.0908
     41  H           6.8483   -3.1329   -1.3960 H         1 MOL1        0.0906
     42  H           7.8719   -3.3403    0.7395 H         1 MOL1        0.0906
     43  H           7.6603   -1.5862    2.3293 H         1 MOL1        0.0906
     44  H           6.4333    0.3704    1.7836 H         1 MOL1        0.0908
     45  H           3.3347    2.8139   -1.2994 H         1 MOL1        0.0568
     46  H           3.7998    3.1313    0.5734 H         1 MOL1        0.0568
     47  H           1.3231    3.6109    0.1066 H         1 MOL1        0.0476
     48  H           1.5599    2.0964    1.3294 H         1 MOL1        0.0476
     49  H          -1.3052   -1.1202   -1.2458 H         1 MOL1        0.0524
     50  H          -1.1087   -1.0914    0.7204 H         1 MOL1        0.0524
     51  H          -3.3841   -2.9243   -0.1411 H         1 MOL1        0.0926
     52  H          -5.3224   -3.9990    0.0086 H         1 MOL1        0.3295
@<TRIPOS>BOND
     1      1      2 1 
     2      2      3 1 
     3      3      4 ar
     4      4      5 ar
     5      5      6 1 
     6      6      7 2 
     7      6      8 1 
     8      8      9 2 
     9      8     23 1 
    10      9     10 1 
    11     10     11 1 
    12     11     12 1 
    13     12     13 1 
    14     13     14 1 
    15     13     21 1 
    16     14     15 1 
    17     15     16 ar
    18     16     17 ar
    19     17     18 ar
    20     18     19 ar
    21     19     20 ar
    22     20     15 ar
    23     21     22 1 
    24     22     10 1 
    25     23     24 1 
    26     24      5 ar
    27     24     25 ar
    28     25     26 ar
    29     26      3 ar
    30     26     27 1 
    31      1     28 1 
    32      1     29 1 
    33      1     30 1 
    34      4     31 1 
    35      9     32 1 
    36     10     33 1 
    37     11     34 1 
    38     11     35 1 
    39     12     36 1 
    40     12     37 1 
    41     14     38 1 
    42     14     39 1 
    43     16     40 1 
    44     17     41 1 
    45     18     42 1 
    46     19     43 1 
    47     20     44 1 
    48     21     45 1 
    49     21     46 1 
    50     22     47 1 
    51     22     48 1 
    52     23     49 1 
    53     23     50 1 
    54     25     51 1 
    55     27     52 1 
@<TRIPOS>SUBSTRUCTURE
     1 MOL1         1 MOLECULE          1 A
