# Molecule written by the XED library from Cresset
@<TRIPOS>MOLECULE
CHEMBL362350
    51     54      1
SMALL
USER_CHARGES
@<TRIPOS>ATOM
      1 C            5.7198    2.8363   -0.0482 C.2       1 MOL1        0.0352
      2 N            5.0583    1.6988    0.1174 N.pl3     1 MOL1        0.0875
      3 N            3.7180    1.4824    0.3635 N.2       1 MOL1       -0.2945
      4 C            3.4448    0.2076    0.4643 C.2       1 MOL1       -0.0111
      5 C            2.0392   -0.2824    0.7258 C.3       1 MOL1       -0.0355
      6 C            1.0519    0.5042   -0.1561 C.3       1 MOL1       -0.0807
      7 C           -0.4242    0.1431    0.1152 C.3       1 MOL1       -0.0563
      8 C           -1.2954    1.0891   -0.7312 C.3       1 MOL1       -0.0743
      9 C           -2.8052    0.7858   -0.5831 C.3       1 MOL1       -0.0462
     10 N           -3.1460   -0.6245   -0.2831 N.3       1 MOL1       -0.2521
     11 C           -4.4826   -0.9679   -0.8211 C.3       1 MOL1       -0.0032
     12 C           -5.7312   -0.2870   -0.2572 C.ar      1 MOL1       -0.0509
     13 C           -5.9215    1.0771   -0.3354 C.ar      1 MOL1       -0.0846
     14 C           -7.0702    1.6588    0.1496 C.ar      1 MOL1       -0.0900
     15 C           -8.0510    0.8781    0.7138 C.ar      1 MOL1       -0.0906
     16 C           -7.8757   -0.4835    0.7946 C.ar      1 MOL1       -0.0900
     17 C           -6.7218   -1.0593    0.3134 C.ar      1 MOL1       -0.0846
     18 C           -2.1336   -1.5281   -0.8609 C.3       1 MOL1       -0.0462
     19 C           -0.7310   -1.3349   -0.2357 C.3       1 MOL1       -0.0743
     20 C            4.6651   -0.5541    0.2779 C.ar      1 MOL1       -0.0232
     21 C            5.0044   -1.9019    0.2720 C.ar      1 MOL1       -0.0808
     22 C            6.3201   -2.2172    0.0554 C.ar      1 MOL1       -0.1069
     23 C            7.2757   -1.2228   -0.1502 C.ar      1 MOL1       -0.1000
     24 C            6.9324    0.1062   -0.1442 C.ar      1 MOL1       -0.0776
     25 C            5.6013    0.4263    0.0744 C.ar      1 MOL1        0.0642
     26  H           5.2332    3.6972    0.0008 H         1 MOL1        0.0977
     27  H           6.6945    2.8342   -0.2212 H         1 MOL1        0.0977
     28  H           1.9663   -1.4522    0.4666 H         1 MOL1        0.0503
     29  H           1.7671   -0.1106    1.8819 H         1 MOL1        0.0503
     30  H           1.2135    1.6707    0.0746 H         1 MOL1        0.0465
     31  H           1.3076    0.3069   -1.3117 H         1 MOL1        0.0465
     32  H          -0.6763    0.3467    1.2709 H         1 MOL1        0.0488
     33  H          -1.0844    2.2326   -0.4342 H         1 MOL1        0.0474
     34  H          -0.9729    0.9271   -1.8760 H         1 MOL1        0.0474
     35  H          -3.3062    1.1431   -1.6144 H         1 MOL1        0.0568
     36  H          -3.2532    1.4534    0.3086 H         1 MOL1        0.0568
     37  H          -4.4765   -0.7997   -2.0090 H         1 MOL1        0.0598
     38  H          -4.6386   -2.1463   -0.6522 H         1 MOL1        0.0598
     39  H          -5.2208    1.6543   -0.7515 H         1 MOL1        0.0908
     40  H          -7.1931    2.6493    0.0871 H         1 MOL1        0.0906
     41  H          -8.8888    1.2986    1.0620 H         1 MOL1        0.0906
     42  H          -8.5878   -1.0557    1.2015 H         1 MOL1        0.0906
     43  H          -6.6074   -2.0507    0.3745 H         1 MOL1        0.0908
     44  H          -2.0719   -1.3120   -2.0402 H         1 MOL1        0.0568
     45  H          -2.4440   -2.6769   -0.7021 H         1 MOL1        0.0568
     46  H          -0.6477   -1.9891    0.7680 H         1 MOL1        0.0474
     47  H           0.0771   -1.7559   -1.0175 H         1 MOL1        0.0474
     48  H           4.3168   -2.6126    0.4205 H         1 MOL1        0.0910
     49  H           6.5999   -3.1771    0.0449 H         1 MOL1        0.0906
     50  H           8.2290   -1.4823   -0.3055 H         1 MOL1        0.0906
     51  H           7.6203    0.8158   -0.2926 H         1 MOL1        0.0921
@<TRIPOS>BOND
     1      1      2 2 
     2      2      3 1 
     3      3      4 2 
     4      4      5 1 
     5      4     20 1 
     6      5      6 1 
     7      6      7 1 
     8      7      8 1 
     9      8      9 1 
    10      9     10 1 
    11     10     11 1 
    12     10     18 1 
    13     11     12 1 
    14     12     13 ar
    15     13     14 ar
    16     14     15 ar
    17     15     16 ar
    18     16     17 ar
    19     17     12 ar
    20     18     19 1 
    21     19      7 1 
    22     20     21 ar
    23     21     22 ar
    24     22     23 ar
    25     23     24 ar
    26     24     25 ar
    27     25      2 1 
    28     25     20 ar
    29      1     26 1 
    30      1     27 1 
    31      5     28 1 
    32      5     29 1 
    33      6     30 1 
    34      6     31 1 
    35      7     32 1 
    36      8     33 1 
    37      8     34 1 
    38      9     35 1 
    39      9     36 1 
    40     11     37 1 
    41     11     38 1 
    42     13     39 1 
    43     14     40 1 
    44     15     41 1 
    45     16     42 1 
    46     17     43 1 
    47     18     44 1 
    48     18     45 1 
    49     19     46 1 
    50     19     47 1 
    51     21     48 1 
    52     22     49 1 
    53     23     50 1 
    54     24     51 1 
@<TRIPOS>SUBSTRUCTURE
     1 MOL1         1 MOLECULE          1 A
