# Molecule written by the XED library from Cresset
@<TRIPOS>MOLECULE
CHEMBL3819574
    55     58      1
SMALL
USER_CHARGES
@<TRIPOS>ATOM
      1 C           -9.3717   -0.5310    1.4979 C.3       1 MOL1       -0.0471
      2 O           -8.1020   -1.0530    1.0527 O.3       1 MOL1       -0.2037
      3 C           -7.2445   -0.2288    0.4324 C.ar      1 MOL1        0.0592
      4 C           -7.4949    1.1239    0.2614 C.ar      1 MOL1       -0.0839
      5 C           -6.5894    1.9247   -0.3923 C.ar      1 MOL1       -0.0862
      6 C           -5.4255    1.3860   -0.8904 C.ar      1 MOL1       -0.1014
      7 C           -5.1563    0.0442   -0.7296 C.ar      1 MOL1       -0.0479
      8 C           -3.8939   -0.5782   -1.3170 C.3       1 MOL1       -0.0030
      9 N           -2.6034   -0.4069   -0.6133 N.3       1 MOL1       -0.2520
     10 C           -1.5740   -1.2382   -1.2753 C.3       1 MOL1       -0.0455
     11 C           -0.1489   -1.0473   -0.7129 C.3       1 MOL1       -0.0701
     12 C            0.2287    0.4392   -0.8470 C.3       1 MOL1       -0.0233
     13 C           -0.7906    1.2471   -0.0243 C.3       1 MOL1       -0.0701
     14 C           -2.1982    1.0158   -0.6149 C.3       1 MOL1       -0.0455
     15 C            1.6407    0.8346   -0.4750 C.2       1 MOL1       -0.0523
     16 C            2.7191    0.1111   -0.1703 C.2       1 MOL1       -0.0313
     17 C            3.0693   -1.3672   -0.0989 C.3       1 MOL1       -0.0040
     18 C            4.5818   -1.3884    0.0747 C.ar      1 MOL1       -0.0278
     19 C            5.4177   -2.4691    0.1370 C.ar      1 MOL1       -0.1004
     20 C            6.7779   -2.2580    0.2899 C.ar      1 MOL1       -0.0710
     21 C            7.2891   -0.9833    0.3781 C.ar      1 MOL1       -0.0827
     22 C            6.4570    0.1280    0.3212 C.ar      1 MOL1        0.0946
     23 O            6.9020    1.3801    0.3963 O.3       1 MOL1       -0.1986
     24 C            8.3223    1.6072    0.4982 C.3       1 MOL1       -0.0471
     25 C            5.0957   -0.1117    0.1709 C.ar      1 MOL1        0.0127
     26 C            3.9718    0.8046    0.0667 C.2       1 MOL1        0.2039
     27 O            4.1266    2.0143    0.1601 O.2       1 MOL1       -0.3904
     28 C           -6.0640   -0.7506   -0.0664 C.ar      1 MOL1       -0.0782
     29  H         -10.0156   -1.4134    1.9949 H         1 MOL1        0.0618
     30  H          -9.1904    0.3292    2.3143 H         1 MOL1        0.0618
     31  H          -9.9822   -0.0800    0.5679 H         1 MOL1        0.0618
     32  H          -8.3412    1.5240    0.6131 H         1 MOL1        0.0924
     33  H          -6.7787    2.8996   -0.5105 H         1 MOL1        0.0906
     34  H          -4.7736    1.9704   -1.3741 H         1 MOL1        0.0908
     35  H          -4.1119   -1.7565   -1.3994 H         1 MOL1        0.0598
     36  H          -3.7834   -0.1736   -2.4417 H         1 MOL1        0.0598
     37  H          -1.5324   -0.9733   -2.4454 H         1 MOL1        0.0568
     38  H          -1.8620   -2.3972   -1.1584 H         1 MOL1        0.0568
     39  H           0.5863   -1.7310   -1.3662 H         1 MOL1        0.0476
     40  H          -0.1121   -1.3841    0.4385 H         1 MOL1        0.0476
     41  H           0.0923    0.7643   -1.9937 H         1 MOL1        0.0514
     42  H          -0.7612    0.8865    1.1201 H         1 MOL1        0.0476
     43  H          -0.5259    2.4161   -0.0841 H         1 MOL1        0.0476
     44  H          -2.9746    1.6459    0.0473 H         1 MOL1        0.0568
     45  H          -2.2118    1.4428   -1.7362 H         1 MOL1        0.0568
     46  H           1.7904    1.8125   -0.4603 H         1 MOL1        0.0887
     47  H           2.5496   -1.8723    0.8577 H         1 MOL1        0.0524
     48  H           2.7775   -1.9476   -1.1066 H         1 MOL1        0.0524
     49  H           5.0527   -3.3976    0.0707 H         1 MOL1        0.0908
     50  H           7.3971   -3.0418    0.3346 H         1 MOL1        0.0906
     51  H           8.2755   -0.8590    0.4837 H         1 MOL1        0.0924
     52  H           8.5307    2.7881    0.5473 H         1 MOL1        0.0618
     53  H           8.8830    1.1483   -0.4593 H         1 MOL1        0.0618
     54  H           8.7446    1.0904    1.4959 H         1 MOL1        0.0618
     55  H          -5.8696   -1.7253    0.0454 H         1 MOL1        0.0926
@<TRIPOS>BOND
     1      1      2 1 
     2      2      3 1 
     3      3      4 ar
     4      4      5 ar
     5      5      6 ar
     6      6      7 ar
     7      7      8 1 
     8      7     28 ar
     9      8      9 1 
    10      9     10 1 
    11     10     11 1 
    12     11     12 1 
    13     12     13 1 
    14     12     15 1 
    15     13     14 1 
    16     14      9 1 
    17     15     16 2 
    18     16     17 1 
    19     16     26 1 
    20     17     18 1 
    21     18     19 ar
    22     19     20 ar
    23     20     21 ar
    24     21     22 ar
    25     22     23 1 
    26     22     25 ar
    27     23     24 1 
    28     25     18 ar
    29     25     26 1 
    30     26     27 2 
    31     28      3 ar
    32      1     29 1 
    33      1     30 1 
    34      1     31 1 
    35      4     32 1 
    36      5     33 1 
    37      6     34 1 
    38      8     35 1 
    39      8     36 1 
    40     10     37 1 
    41     10     38 1 
    42     11     39 1 
    43     11     40 1 
    44     12     41 1 
    45     13     42 1 
    46     13     43 1 
    47     14     44 1 
    48     14     45 1 
    49     15     46 1 
    50     17     47 1 
    51     17     48 1 
    52     19     49 1 
    53     20     50 1 
    54     21     51 1 
    55     24     52 1 
    56     24     53 1 
    57     24     54 1 
    58     28     55 1 
@<TRIPOS>SUBSTRUCTURE
     1 MOL1         1 MOLECULE          1 A
