# Molecule written by the XED library from Cresset
@<TRIPOS>MOLECULE
CHEMBL92463
    49     52      1
SMALL
USER_CHARGES
@<TRIPOS>ATOM
      1 O            8.6343   -0.9588   -0.1197 O.3       1 MOL1       -0.3803
      2 C            7.3051   -0.6849   -0.0731 C.ar      1 MOL1        0.0738
      3 C            6.3851   -1.7325    0.0331 C.ar      1 MOL1       -0.0924
      4 C            5.0395   -1.4892    0.0870 C.ar      1 MOL1       -0.0523
      5 C            4.6174   -0.1655    0.0319 C.ar      1 MOL1       -0.0104
      6 C            3.3683    0.5140    0.0656 C.ar      1 MOL1        0.1048
      7 C            2.0099   -0.1453    0.2112 C.3       1 MOL1       -0.0333
      8 C            0.8302    0.6576   -0.3744 C.3       1 MOL1       -0.0806
      9 C           -0.5176    0.2178    0.2348 C.3       1 MOL1       -0.0563
     10 C           -1.6389    1.1672   -0.2244 C.3       1 MOL1       -0.0743
     11 C           -2.9578    0.7446    0.4545 C.3       1 MOL1       -0.0462
     12 N           -3.3397   -0.6436    0.1183 N.3       1 MOL1       -0.2521
     13 C           -4.5787   -1.0240    0.8268 C.3       1 MOL1       -0.0032
     14 C           -5.8600   -0.3711    0.3260 C.ar      1 MOL1       -0.0509
     15 C           -6.3113    0.8081    0.8775 C.ar      1 MOL1       -0.0846
     16 C           -7.4795    1.3824    0.4305 C.ar      1 MOL1       -0.0900
     17 C           -8.2053    0.7772   -0.5694 C.ar      1 MOL1       -0.0906
     18 C           -7.7594   -0.4007   -1.1232 C.ar      1 MOL1       -0.0900
     19 C           -6.5896   -0.9718   -0.6765 C.ar      1 MOL1       -0.0846
     20 C           -2.2567   -1.5747    0.4898 C.3       1 MOL1       -0.0462
     21 C           -0.9121   -1.2151   -0.1743 C.3       1 MOL1       -0.0743
     22 N            3.5217    1.8018   -0.0177 N.ar      1 MOL1       -0.2731
     23 O            4.9145    2.0539   -0.1159 O.3       1 MOL1       -0.0836
     24 C            5.5217    0.8593   -0.0768 C.ar      1 MOL1        0.1039
     25 C            6.8801    0.6259   -0.1305 C.ar      1 MOL1       -0.0724
     26  H           8.8098   -1.9483   -0.0715 H         1 MOL1        0.3295
     27  H           6.7161   -2.6754    0.0715 H         1 MOL1        0.0924
     28  H           4.3817   -2.2384    0.1648 H         1 MOL1        0.0910
     29  H           2.0641   -1.2122   -0.3353 H         1 MOL1        0.0503
     30  H           1.8271   -0.3230    1.3836 H         1 MOL1        0.0503
     31  H           0.9891    1.8179   -0.1117 H         1 MOL1        0.0465
     32  H           0.8047    0.5284   -1.5671 H         1 MOL1        0.0465
     33  H          -0.4563    0.2789    1.4318 H         1 MOL1        0.0488
     34  H          -1.7580    1.1022   -1.4165 H         1 MOL1        0.0474
     35  H          -1.3758    2.2938    0.0939 H         1 MOL1        0.0474
     36  H          -2.8115    0.8519    1.6407 H         1 MOL1        0.0568
     37  H          -3.8221    1.4937    0.0933 H         1 MOL1        0.0568
     38  H          -4.4533   -0.8148    2.0027 H         1 MOL1        0.0598
     39  H          -4.7432   -2.2073    0.7047 H         1 MOL1        0.0598
     40  H          -5.7877    1.2490    1.6067 H         1 MOL1        0.0908
     41  H          -7.8013    2.2392    0.8339 H         1 MOL1        0.0906
     42  H          -9.0555    1.1926   -0.8930 H         1 MOL1        0.0906
     43  H          -8.2859   -0.8428   -1.8497 H         1 MOL1        0.0906
     44  H          -6.2697   -1.8293   -1.0797 H         1 MOL1        0.0908
     45  H          -2.5425   -2.6904    0.1532 H         1 MOL1        0.0568
     46  H          -2.1165   -1.5481    1.6812 H         1 MOL1        0.0568
     47  H          -0.0833   -1.9974    0.1993 H         1 MOL1        0.0474
     48  H          -1.0205   -1.2787   -1.3678 H         1 MOL1        0.0474
     49  H           7.5328    1.3796   -0.2072 H         1 MOL1        0.0942
@<TRIPOS>BOND
     1      1      2 1 
     2      2      3 ar
     3      3      4 ar
     4      4      5 ar
     5      5      6 ar
     6      6      7 1 
     7      6     22 ar
     8      7      8 1 
     9      8      9 1 
    10      9     10 1 
    11     10     11 1 
    12     11     12 1 
    13     12     13 1 
    14     12     20 1 
    15     13     14 1 
    16     14     15 ar
    17     15     16 ar
    18     16     17 ar
    19     17     18 ar
    20     18     19 ar
    21     19     14 ar
    22     20     21 1 
    23     21      9 1 
    24     22     23 ar
    25     23     24 ar
    26     24      5 ar
    27     24     25 ar
    28     25      2 ar
    29      1     26 1 
    30      3     27 1 
    31      4     28 1 
    32      7     29 1 
    33      7     30 1 
    34      8     31 1 
    35      8     32 1 
    36      9     33 1 
    37     10     34 1 
    38     10     35 1 
    39     11     36 1 
    40     11     37 1 
    41     13     38 1 
    42     13     39 1 
    43     15     40 1 
    44     16     41 1 
    45     17     42 1 
    46     18     43 1 
    47     19     44 1 
    48     20     45 1 
    49     20     46 1 
    50     21     47 1 
    51     21     48 1 
    52     25     49 1 
@<TRIPOS>SUBSTRUCTURE
     1 MOL1         1 MOLECULE          1 A
