# Molecule written by the XED library from Cresset
@<TRIPOS>MOLECULE
CHEMBL3921061
    40     41      1
SMALL
USER_CHARGES
@<TRIPOS>ATOM
      1 C           -6.3795   -2.7443   -0.0028 C.3       1 MOL1        0.0498
      2 N           -4.9742   -2.3191   -0.0018 N.am      1 MOL1       -0.4035
      3 C           -3.9534   -3.3769   -0.0011 C.3       1 MOL1        0.0498
      4 C           -4.6516   -1.0066   -0.0013 C.2       1 MOL1        0.4105
      5 O           -5.4856   -0.1053   -0.0072 O.2       1 MOL1       -0.4165
      6 O           -3.3003   -0.7898    0.0079 O.3       1 MOL1       -0.1068
      7 C           -2.8130    0.5027    0.0043 C.ar      1 MOL1        0.0699
      8 C           -3.6004    1.6456    0.0050 C.ar      1 MOL1       -0.0694
      9 C           -3.0285    2.8960    0.0021 C.ar      1 MOL1       -0.0851
     10 C           -1.6635    3.0300   -0.0005 C.ar      1 MOL1       -0.0776
     11 C           -0.8423    1.9120   -0.0004 C.ar      1 MOL1        0.0035
     12 C           -1.4410    0.6593    0.0015 C.ar      1 MOL1       -0.0568
     13 C            0.6278    2.1003   -0.0016 C.2       1 MOL1        0.1863
     14 O            1.0966    3.2317   -0.0023 O.2       1 MOL1       -0.3942
     15 C            1.5381    0.9788   -0.0015 C.2       1 MOL1       -0.0712
     16 C            2.8718    1.1916   -0.0008 C.2       1 MOL1       -0.0253
     17 C            3.8732    0.1106   -0.0005 C.ar      1 MOL1       -0.0397
     18 C            3.5366   -1.2380   -0.0004 C.ar      1 MOL1       -0.0657
     19 C            4.5158   -2.1978   -0.0001 C.ar      1 MOL1       -0.0817
     20 C            5.8497   -1.8312    0.0000 C.ar      1 MOL1        0.0642
     21 O            6.8204   -2.7807    0.0002 O.3       1 MOL1       -0.3810
     22 C            6.1937   -0.4921   -0.0001 C.ar      1 MOL1       -0.0817
     23 C            5.2149    0.4674   -0.0003 C.ar      1 MOL1       -0.0657
     24  H          -7.1093   -1.7920   -0.0030 H         1 MOL1        0.0567
     25  H          -6.5942   -3.4054    0.9753 H         1 MOL1        0.0567
     26  H          -6.5932   -3.4053   -0.9812 H         1 MOL1        0.0567
     27  H          -2.8413   -2.9276   -0.0028 H         1 MOL1        0.0567
     28  H          -4.0976   -4.0574    0.9767 H         1 MOL1        0.0567
     29  H          -4.0992   -4.0596   -0.9772 H         1 MOL1        0.0567
     30  H          -4.5943    1.5732    0.0076 H         1 MOL1        0.0924
     31  H          -3.6093    3.7099    0.0024 H         1 MOL1        0.0906
     32  H          -1.2559    3.9433   -0.0021 H         1 MOL1        0.0910
     33  H          -0.8686   -0.1583    0.0014 H         1 MOL1        0.0928
     34  H           1.1848    0.0597   -0.0017 H         1 MOL1        0.0931
     35  H           3.1958    2.1279   -0.0007 H         1 MOL1        0.0910
     36  H           2.5775   -1.5161   -0.0006 H         1 MOL1        0.0910
     37  H           4.2650   -3.1658   -0.0001 H         1 MOL1        0.0924
     38  H           6.4303   -3.7081    0.0003 H         1 MOL1        0.3295
     39  H           7.1569   -0.2234   -0.0001 H         1 MOL1        0.0924
     40  H           5.4698    1.4344   -0.0004 H         1 MOL1        0.0910
@<TRIPOS>BOND
     1      1      2 1 
     2      2      3 1 
     3      2      4 am
     4      4      5 2 
     5      4      6 1 
     6      6      7 1 
     7      7      8 ar
     8      8      9 ar
     9      9     10 ar
    10     10     11 ar
    11     11     12 ar
    12     11     13 1 
    13     12      7 ar
    14     13     14 2 
    15     13     15 1 
    16     15     16 2 
    17     16     17 1 
    18     17     18 ar
    19     18     19 ar
    20     19     20 ar
    21     20     21 1 
    22     20     22 ar
    23     22     23 ar
    24     23     17 ar
    25      1     24 1 
    26      1     25 1 
    27      1     26 1 
    28      3     27 1 
    29      3     28 1 
    30      3     29 1 
    31      8     30 1 
    32      9     31 1 
    33     10     32 1 
    34     12     33 1 
    35     15     34 1 
    36     16     35 1 
    37     18     36 1 
    38     19     37 1 
    39     21     38 1 
    40     22     39 1 
    41     23     40 1 
@<TRIPOS>SUBSTRUCTURE
     1 MOL1         1 MOLECULE          1 A
