# Molecule written by the XED library from Cresset
@<TRIPOS>MOLECULE
CHEMBL3818167
    51     54      1
SMALL
USER_CHARGES
@<TRIPOS>ATOM
      1 C           -7.6114   -1.7725    0.3499 C.3       1 MOL1       -0.0471
      2 O           -6.1968   -1.5024    0.2731 O.3       1 MOL1       -0.1986
      3 C           -5.7877   -0.2357    0.2305 C.ar      1 MOL1        0.0946
      4 C           -6.6515    0.8504    0.2979 C.ar      1 MOL1       -0.0827
      5 C           -6.1752    2.1410    0.2456 C.ar      1 MOL1       -0.0710
      6 C           -4.8194    2.3951    0.1195 C.ar      1 MOL1       -0.1004
      7 C           -3.9523    1.3396    0.0469 C.ar      1 MOL1       -0.0278
      8 C           -2.4366    1.3623   -0.1032 C.3       1 MOL1       -0.0040
      9 C           -2.0441   -0.1040   -0.1942 C.2       1 MOL1       -0.0313
     10 C           -0.9368   -0.7893   -0.4834 C.2       1 MOL1       -0.0523
     11 C            0.4720   -0.3333   -0.8018 C.3       1 MOL1       -0.0233
     12 C            1.4996   -1.1929   -0.0424 C.3       1 MOL1       -0.0701
     13 C            2.9149   -0.8501   -0.5549 C.3       1 MOL1       -0.0455
     14 N            3.2528    0.5773   -0.3677 N.3       1 MOL1       -0.2520
     15 C            4.5783    0.8759   -0.9476 C.3       1 MOL1       -0.0032
     16 C            5.7850    0.2362   -0.2730 C.ar      1 MOL1       -0.0509
     17 C            6.2427   -0.9944   -0.6897 C.ar      1 MOL1       -0.0846
     18 C            7.3453   -1.5650   -0.0950 C.ar      1 MOL1       -0.0900
     19 C            7.9985   -0.9029    0.9194 C.ar      1 MOL1       -0.0906
     20 C            7.5473    0.3280    1.3369 C.ar      1 MOL1       -0.0900
     21 C            6.4424    0.8940    0.7431 C.ar      1 MOL1       -0.0846
     22 C            2.2344    1.4314   -1.0099 C.3       1 MOL1       -0.0455
     23 C            0.8006    1.1452   -0.5191 C.3       1 MOL1       -0.0701
     24 C           -3.2825   -0.8354   -0.0004 C.2       1 MOL1        0.2039
     25 O           -3.4113   -2.0501    0.0523 O.2       1 MOL1       -0.3904
     26 C           -4.4320    0.0479    0.1069 C.ar      1 MOL1        0.0127
     27  H          -7.7832   -2.9598    0.3769 H         1 MOL1        0.0618
     28  H          -8.0637   -1.2861    1.3497 H         1 MOL1        0.0618
     29  H          -8.1681   -1.3135   -0.6096 H         1 MOL1        0.0618
     30  H          -7.6356    0.6961    0.3854 H         1 MOL1        0.0924
     31  H          -6.8170    2.9065    0.2973 H         1 MOL1        0.0906
     32  H          -4.4805    3.3350    0.0791 H         1 MOL1        0.0908
     33  H          -2.1469    1.9626   -1.0999 H         1 MOL1        0.0524
     34  H          -1.9408    1.8647    0.8674 H         1 MOL1        0.0524
     35  H          -1.0559   -1.7715   -0.4896 H         1 MOL1        0.0887
     36  H           0.6437   -0.5454   -1.9705 H         1 MOL1        0.0514
     37  H           1.4256   -0.9646    1.1332 H         1 MOL1        0.0476
     38  H           1.2804   -2.3558   -0.2395 H         1 MOL1        0.0476
     39  H           3.7017   -1.5228    0.0509 H         1 MOL1        0.0568
     40  H           2.9780   -1.1350   -1.7186 H         1 MOL1        0.0568
     41  H           4.5809    0.5774   -2.1102 H         1 MOL1        0.0598
     42  H           4.7572    2.0622   -0.8931 H         1 MOL1        0.0598
     43  H           5.7710   -1.4750   -1.4289 H         1 MOL1        0.0908
     44  H           7.6724   -2.4592   -0.4010 H         1 MOL1        0.0906
     45  H           8.8009   -1.3142    1.3517 H         1 MOL1        0.0906
     46  H           8.0237    0.8127    2.0701 H         1 MOL1        0.0906
     47  H           6.1199    1.7904    1.0466 H         1 MOL1        0.0908
     48  H           2.4766    2.5858   -0.7893 H         1 MOL1        0.0568
     49  H           2.2576    1.2476   -2.1955 H         1 MOL1        0.0568
     50  H           0.0643    1.8664   -1.1291 H         1 MOL1        0.0476
     51  H           0.7155    1.3686    0.6576 H         1 MOL1        0.0476
@<TRIPOS>BOND
     1      1      2 1 
     2      2      3 1 
     3      3      4 ar
     4      4      5 ar
     5      5      6 ar
     6      6      7 ar
     7      7      8 1 
     8      8      9 1 
     9      9     10 2 
    10      9     24 1 
    11     10     11 1 
    12     11     12 1 
    13     12     13 1 
    14     13     14 1 
    15     14     15 1 
    16     14     22 1 
    17     15     16 1 
    18     16     17 ar
    19     17     18 ar
    20     18     19 ar
    21     19     20 ar
    22     20     21 ar
    23     21     16 ar
    24     22     23 1 
    25     23     11 1 
    26     24     25 2 
    27     24     26 1 
    28     26      3 ar
    29     26      7 ar
    30      1     27 1 
    31      1     28 1 
    32      1     29 1 
    33      4     30 1 
    34      5     31 1 
    35      6     32 1 
    36      8     33 1 
    37      8     34 1 
    38     10     35 1 
    39     11     36 1 
    40     12     37 1 
    41     12     38 1 
    42     13     39 1 
    43     13     40 1 
    44     15     41 1 
    45     15     42 1 
    46     17     43 1 
    47     18     44 1 
    48     19     45 1 
    49     20     46 1 
    50     21     47 1 
    51     22     48 1 
    52     22     49 1 
    53     23     50 1 
    54     23     51 1 
@<TRIPOS>SUBSTRUCTURE
     1 MOL1         1 MOLECULE          1 A
