# Molecule written by the XED library from Cresset
@<TRIPOS>MOLECULE
CHEMBL185799
    56     59      1
SMALL
USER_CHARGES
@<TRIPOS>ATOM
      1 C            6.9090   -2.4020   -0.1112 C.3       1 MOL1       -0.0471
      2 O            6.7214   -0.9731   -0.0699 O.3       1 MOL1       -0.2004
      3 C            5.4743   -0.4840   -0.0364 C.ar      1 MOL1        0.0771
      4 C            4.3554   -1.3226   -0.0288 C.ar      1 MOL1       -0.0552
      5 C            3.1109   -0.7552   -0.0020 C.ar      1 MOL1       -0.0453
      6 C            1.7410   -1.3330   -0.0014 C.2       1 MOL1       -0.0630
      7 C            0.7945   -0.3929   -0.0092 C.2       1 MOL1       -0.0794
      8 C           -0.7082   -0.5218    0.0327 C.3       1 MOL1       -0.0170
      9 C           -1.2512   -0.7479   -1.3866 C.3       1 MOL1       -0.0721
     10 C           -2.7901   -0.6593   -1.3425 C.3       1 MOL1       -0.0522
     11 N           -3.4583   -1.5915   -0.3439 N.4       1 MOL1       -0.1556
     12 C           -3.4672   -2.9913   -0.9146 C.3       1 MOL1       -0.0797
     13 C           -4.9107   -1.1888   -0.1402 C.3       1 MOL1       -0.0099
     14 C           -5.3420    0.2568    0.1510 C.ar      1 MOL1       -0.0534
     15 C           -4.5705    1.2485    0.7255 C.ar      1 MOL1       -0.0850
     16 C           -5.0796    2.5092    0.9382 C.ar      1 MOL1       -0.0901
     17 C           -6.3745    2.7992    0.5800 C.ar      1 MOL1       -0.0906
     18 C           -7.1562    1.8225    0.0106 C.ar      1 MOL1       -0.0901
     19 C           -6.6402    0.5639   -0.1984 C.ar      1 MOL1       -0.0850
     20 C           -2.7424   -1.6350    0.9985 C.3       1 MOL1       -0.0522
     21 C           -1.1976   -1.6674    0.9330 C.3       1 MOL1       -0.0721
     22 C            1.4971    0.8785    0.0360 C.2       1 MOL1        0.1671
     23 O            1.0273    2.0019    0.0812 O.2       1 MOL1       -0.2127
     24 C            2.9526    0.6231    0.0212 C.ar      1 MOL1       -0.0248
     25 C            4.0414    1.4592    0.0184 C.ar      1 MOL1       -0.0442
     26 C            5.3164    0.8983   -0.0136 C.ar      1 MOL1        0.0752
     27 O            6.4225    1.6635   -0.0283 O.3       1 MOL1       -0.2001
     28 C            6.2767    3.0981   -0.0293 C.3       1 MOL1       -0.0471
     29  H           8.0834   -2.6469   -0.1432 H         1 MOL1        0.0618
     30  H           6.3820   -2.8507   -1.0917 H         1 MOL1        0.0618
     31  H           6.4255   -2.8991    0.8682 H         1 MOL1        0.0618
     32  H           4.4589   -2.3167   -0.0465 H         1 MOL1        0.0928
     33  H           1.5528   -2.3049    0.0014 H         1 MOL1        0.0912
     34  H          -1.1547    0.5059    0.4622 H         1 MOL1        0.0519
     35  H          -0.8891   -1.8134   -1.8016 H         1 MOL1        0.0473
     36  H          -0.8342    0.1142   -2.1097 H         1 MOL1        0.0473
     37  H          -3.0230    0.4843   -1.0772 H         1 MOL1        0.0544
     38  H          -3.2204   -0.8485   -2.4469 H         1 MOL1        0.0544
     39  H          -3.9603   -3.0105   -2.0087 H         1 MOL1        0.0518
     40  H          -4.1073   -3.7212   -0.2083 H         1 MOL1        0.0518
     41  H          -2.3573   -3.4338   -1.0023 H         1 MOL1        0.0518
     42  H          -5.3631   -1.8769    0.7330 H         1 MOL1        0.0574
     43  H          -5.4918   -1.4871   -1.1484 H         1 MOL1        0.0574
     44  H          -3.6269    1.0616    0.9868 H         1 MOL1        0.0908
     45  H          -4.5060    3.2157    1.3529 H         1 MOL1        0.0906
     46  H          -6.7453    3.7152    0.7330 H         1 MOL1        0.0906
     47  H          -8.0994    2.0264   -0.2515 H         1 MOL1        0.0906
     48  H          -7.2169   -0.1404   -0.6124 H         1 MOL1        0.0908
     49  H          -3.1039   -2.5978    1.6174 H         1 MOL1        0.0544
     50  H          -3.0324   -0.6919    1.6738 H         1 MOL1        0.0544
     51  H          -0.7614   -1.5117    2.0400 H         1 MOL1        0.0473
     52  H          -0.8008   -2.7160    0.5073 H         1 MOL1        0.0473
     53  H           3.9171    2.4510    0.0346 H         1 MOL1        0.0928
     54  H           5.6504    3.4411   -0.9940 H         1 MOL1        0.0618
     55  H           5.7027    3.4445    0.9660 H         1 MOL1        0.0618
     56  H           7.3621    3.6089   -0.0598 H         1 MOL1        0.0618
@<TRIPOS>BOND
     1      1      2 1 
     2      2      3 1 
     3      3      4 ar
     4      4      5 ar
     5      5      6 1 
     6      6      7 2 
     7      7      8 1 
     8      7     22 1 
     9      8      9 1 
    10      9     10 1 
    11     10     11 1 
    12     11     12 1 
    13     11     13 1 
    14     11     20 1 
    15     13     14 1 
    16     14     15 ar
    17     15     16 ar
    18     16     17 ar
    19     17     18 ar
    20     18     19 ar
    21     19     14 ar
    22     20     21 1 
    23     21      8 1 
    24     22     23 2 
    25     22     24 1 
    26     24      5 ar
    27     24     25 ar
    28     25     26 ar
    29     26      3 ar
    30     26     27 1 
    31     27     28 1 
    32      1     29 1 
    33      1     30 1 
    34      1     31 1 
    35      4     32 1 
    36      6     33 1 
    37      8     34 1 
    38      9     35 1 
    39      9     36 1 
    40     10     37 1 
    41     10     38 1 
    42     12     39 1 
    43     12     40 1 
    44     12     41 1 
    45     13     42 1 
    46     13     43 1 
    47     15     44 1 
    48     16     45 1 
    49     17     46 1 
    50     18     47 1 
    51     19     48 1 
    52     20     49 1 
    53     20     50 1 
    54     21     51 1 
    55     21     52 1 
    56     25     53 1 
    57     28     54 1 
    58     28     55 1 
    59     28     56 1 
@<TRIPOS>SUBSTRUCTURE
     1 MOL1         1 MOLECULE          1 A
