# Molecule written by the XED library from Cresset
@<TRIPOS>MOLECULE
CHEMBL359570
    53     57      1
SMALL
USER_CHARGES
@<TRIPOS>ATOM
      1 O           -7.8013   -3.2474   -0.1783 O.2       1 MOL1       -0.4137
      2 C           -6.9191   -2.4096   -0.0862 C.2       1 MOL1        0.3054
      3 C           -5.4381   -2.6786    0.1698 C.3       1 MOL1        0.0259
      4 C           -4.8369   -1.2771    0.1934 C.ar      1 MOL1       -0.0697
      5 C           -3.5661   -0.8129    0.3804 C.ar      1 MOL1       -0.0491
      6 C           -3.4132    0.5728    0.3344 C.ar      1 MOL1       -0.0168
      7 C           -2.3235    1.4775    0.4710 C.ar      1 MOL1        0.1005
      8 C           -0.8773    1.0953    0.7293 C.3       1 MOL1       -0.0334
      9 C            0.1253    2.0554    0.0600 C.3       1 MOL1       -0.0806
     10 C            1.5784    1.5369    0.1363 C.3       1 MOL1       -0.0563
     11 C            1.8719    0.5237   -0.9905 C.3       1 MOL1       -0.0743
     12 C            3.3283    0.0061   -0.9064 C.3       1 MOL1       -0.0462
     13 N            4.2899    0.9653   -0.3130 N.3       1 MOL1       -0.2521
     14 C            5.6636    0.6942   -0.7891 C.3       1 MOL1       -0.0032
     15 C            6.2930   -0.6006   -0.2891 C.ar      1 MOL1       -0.0509
     16 C            5.9274   -1.8176   -0.8221 C.ar      1 MOL1       -0.0846
     17 C            6.5079   -2.9800   -0.3685 C.ar      1 MOL1       -0.0900
     18 C            7.4654   -2.9301    0.6178 C.ar      1 MOL1       -0.0906
     19 C            7.8380   -1.7183    1.1520 C.ar      1 MOL1       -0.0900
     20 C            7.2515   -0.5582    0.6998 C.ar      1 MOL1       -0.0846
     21 C            3.9029    2.3485   -0.6433 C.3       1 MOL1       -0.0462
     22 C            2.5588    2.7315    0.0244 C.3       1 MOL1       -0.0743
     23 N           -2.7099    2.7127    0.3516 N.ar      1 MOL1       -0.2792
     24 O           -4.1082    2.7002    0.1178 O.3       1 MOL1       -0.0849
     25 C           -4.4829    1.4144    0.1143 C.ar      1 MOL1        0.1003
     26 C           -5.7681    0.9460   -0.0786 C.ar      1 MOL1       -0.0890
     27 C           -5.9020   -0.4237   -0.0301 C.ar      1 MOL1        0.0981
     28 N           -7.0950   -1.0882   -0.1943 N.am      1 MOL1       -0.2047
     29  H          -4.9654   -3.3270   -0.7223 H         1 MOL1        0.0558
     30  H          -5.2799   -3.2282    1.2248 H         1 MOL1        0.0558
     31  H          -2.7939   -1.4277    0.5418 H         1 MOL1        0.0912
     32  H          -0.6796    1.0974    1.9132 H         1 MOL1        0.0503
     33  H          -0.7222   -0.0204    0.3180 H         1 MOL1        0.0503
     34  H           0.0481    3.1053    0.6368 H         1 MOL1        0.0465
     35  H          -0.1836    2.2263   -1.0865 H         1 MOL1        0.0465
     36  H           1.7449    0.9896    1.1919 H         1 MOL1        0.0488
     37  H           1.1220   -0.4116   -0.9553 H         1 MOL1        0.0474
     38  H           1.7298    1.0946   -2.0371 H         1 MOL1        0.0474
     39  H           3.3598   -0.9866   -0.2317 H         1 MOL1        0.0568
     40  H           3.6484   -0.3038   -2.0213 H         1 MOL1        0.0568
     41  H           6.3826    1.5810   -0.4159 H         1 MOL1        0.0598
     42  H           5.6960    0.7096   -1.9889 H         1 MOL1        0.0598
     43  H           5.2330   -1.8562   -1.5411 H         1 MOL1        0.0908
     44  H           6.2347   -3.8600   -0.7574 H         1 MOL1        0.0906
     45  H           7.8904   -3.7732    0.9457 H         1 MOL1        0.0906
     46  H           8.5345   -1.6801    1.8683 H         1 MOL1        0.0906
     47  H           7.5245    0.3212    1.0894 H         1 MOL1        0.0908
     48  H           4.7337    3.1300   -0.2690 H         1 MOL1        0.0568
     49  H           3.8042    2.4438   -1.8361 H         1 MOL1        0.0568
     50  H           2.7660    3.1599    1.1268 H         1 MOL1        0.0474
     51  H           2.0630    3.6102   -0.6259 H         1 MOL1        0.0474
     52  H          -6.5441    1.5559   -0.2402 H         1 MOL1        0.0937
     53  H          -7.8697   -0.6996   -0.3505 H         1 MOL1        0.2055
@<TRIPOS>BOND
     1      1      2 2 
     2      2      3 1 
     3      3      4 1 
     4      4      5 ar
     5      5      6 ar
     6      6      7 ar
     7      7      8 1 
     8      7     23 ar
     9      8      9 1 
    10      9     10 1 
    11     10     11 1 
    12     11     12 1 
    13     12     13 1 
    14     13     14 1 
    15     13     21 1 
    16     14     15 1 
    17     15     16 ar
    18     16     17 ar
    19     17     18 ar
    20     18     19 ar
    21     19     20 ar
    22     20     15 ar
    23     21     22 1 
    24     22     10 1 
    25     23     24 ar
    26     24     25 ar
    27     25      6 ar
    28     25     26 ar
    29     26     27 ar
    30     27      4 ar
    31     27     28 1 
    32     28      2 am
    33      3     29 1 
    34      3     30 1 
    35      5     31 1 
    36      8     32 1 
    37      8     33 1 
    38      9     34 1 
    39      9     35 1 
    40     10     36 1 
    41     11     37 1 
    42     11     38 1 
    43     12     39 1 
    44     12     40 1 
    45     14     41 1 
    46     14     42 1 
    47     16     43 1 
    48     17     44 1 
    49     18     45 1 
    50     19     46 1 
    51     20     47 1 
    52     21     48 1 
    53     21     49 1 
    54     22     50 1 
    55     22     51 1 
    56     26     52 1 
    57     28     53 1 
@<TRIPOS>SUBSTRUCTURE
     1 MOL1         1 MOLECULE          1 A
