# Molecule written by the XED library from Cresset
@<TRIPOS>MOLECULE
CHEMBL258893
    44     48      1
SMALL
USER_CHARGES
@<TRIPOS>ATOM
      1 C            6.6450   -1.3851    0.0000 C.3       1 MOL1       -0.0471
      2 O            5.8051   -0.2122    0.0001 O.3       1 MOL1       -0.2027
      3 C            4.4645   -0.3474    0.0001 C.ar      1 MOL1        0.0547
      4 C            3.8879   -1.6199   -0.0001 C.ar      1 MOL1       -0.1067
      5 C            2.5378   -1.8089    0.0000 C.ar      1 MOL1       -0.1057
      6 C            1.6542   -0.7333    0.0000 C.ar      1 MOL1       -0.0279
      7 C            2.2269    0.5568    0.0001 C.ar      1 MOL1       -0.0111
      8 C            1.3645    1.6434    0.0001 C.ar      1 MOL1       -0.0178
      9 N            0.0207    1.5169    0.0001 N.pl3     1 MOL1       -0.1119
     10 C           -0.6958    2.7919    0.0003 C.3       1 MOL1        0.0232
     11 C           -0.5937    0.2526    0.0000 C.ar      1 MOL1        0.1042
     12 C            0.2290   -0.8772    0.0000 C.ar      1 MOL1       -0.0217
     13 C           -0.3287   -2.1819   -0.0001 C.ar      1 MOL1       -0.0996
     14 C           -1.6522   -2.3785   -0.0001 C.ar      1 MOL1       -0.1109
     15 C           -2.5263   -1.2748   -0.0001 C.ar      1 MOL1       -0.0287
     16 C           -3.8957   -1.5974    0.0001 C.ar      1 MOL1       -0.0819
     17 C           -4.7667   -0.5621    0.0000 C.ar      1 MOL1        0.0787
     18 O           -6.0884   -0.5964    0.0001 O.3       1 MOL1       -0.1750
     19 C           -6.5987    0.7704    0.0001 C.3       1 MOL1        0.0592
     20 O           -5.3691    1.5560   -0.0002 O.3       1 MOL1       -0.1762
     21 C           -4.3297    0.7361   -0.0002 C.ar      1 MOL1        0.0713
     22 C           -3.0141    1.0647   -0.0003 C.ar      1 MOL1       -0.0681
     23 C           -2.0250    0.0497   -0.0002 C.ar      1 MOL1       -0.0254
     24 C            3.6361    0.7671    0.0001 C.ar      1 MOL1        0.0512
     25 O            4.0590    2.0447    0.0003 O.3       1 MOL1       -0.1987
     26 C            5.4533    2.4161   -0.0006 C.3       1 MOL1       -0.0471
     27  H           7.7930   -1.0354    0.0001 H         1 MOL1        0.0618
     28  H           6.4396   -2.0390    0.9851 H         1 MOL1        0.0618
     29  H           6.4397   -2.0390   -0.9849 H         1 MOL1        0.0618
     30  H           4.4781   -2.4256   -0.0002 H         1 MOL1        0.0924
     31  H           2.1907   -2.7432   -0.0001 H         1 MOL1        0.0910
     32  H           1.7608    2.5606    0.0001 H         1 MOL1        0.0984
     33  H          -1.3376    2.9072   -1.0078 H         1 MOL1        0.0550
     34  H          -1.3381    2.9067    1.0081 H         1 MOL1        0.0550
     35  H           0.0511    3.7325    0.0007 H         1 MOL1        0.0550
     36  H           0.2647   -2.9824   -0.0001 H         1 MOL1        0.0910
     37  H          -2.0172   -3.3100    0.0000 H         1 MOL1        0.0910
     38  H          -4.2130   -2.5462    0.0001 H         1 MOL1        0.0928
     39  H          -7.2416    0.9867    0.9899 H         1 MOL1        0.0806
     40  H          -7.2423    0.9866   -0.9893 H         1 MOL1        0.0806
     41  H          -2.7718    2.0242   -0.0005 H         1 MOL1        0.0928
     42  H           6.0009    2.0230   -0.9935 H         1 MOL1        0.0618
     43  H           6.0022    2.0231    0.9918 H         1 MOL1        0.0618
     44  H           5.5110    3.6147   -0.0007 H         1 MOL1        0.0618
@<TRIPOS>BOND
     1      1      2 1 
     2      2      3 1 
     3      3      4 ar
     4      4      5 ar
     5      5      6 ar
     6      6      7 ar
     7      7      8 ar
     8      7     24 ar
     9      8      9 ar
    10      9     10 1 
    11      9     11 ar
    12     11     12 ar
    13     12      6 ar
    14     12     13 ar
    15     13     14 ar
    16     14     15 ar
    17     15     16 ar
    18     16     17 ar
    19     17     18 1 
    20     18     19 1 
    21     19     20 1 
    22     20     21 1 
    23     21     17 ar
    24     21     22 ar
    25     22     23 ar
    26     23     11 ar
    27     23     15 ar
    28     24      3 ar
    29     24     25 1 
    30     25     26 1 
    31      1     27 1 
    32      1     28 1 
    33      1     29 1 
    34      4     30 1 
    35      5     31 1 
    36      8     32 1 
    37     10     33 1 
    38     10     34 1 
    39     10     35 1 
    40     13     36 1 
    41     14     37 1 
    42     16     38 1 
    43     19     39 1 
    44     19     40 1 
    45     22     41 1 
    46     26     42 1 
    47     26     43 1 
    48     26     44 1 
@<TRIPOS>SUBSTRUCTURE
     1 MOL1         1 MOLECULE          1 A
