# Molecule written by the XED library from Cresset
@<TRIPOS>MOLECULE
CHEMBL589563
    48     51      1
SMALL
USER_CHARGES
@<TRIPOS>ATOM
      1 O            0.0803   -1.9888    0.0048 O.2       1 MOL1       -0.4490
      2 C            0.2944   -0.8008   -0.2420 C.2       1 MOL1        0.4237
      3 N           -0.6755   -0.0189   -0.7717 N.am      1 MOL1       -0.3916
      4 C           -2.0300   -0.5496   -0.9744 C.3       1 MOL1        0.0823
      5 C           -3.0167    0.3069   -0.1579 C.3       1 MOL1       -0.0221
      6 N           -4.4334    0.0365   -0.4659 N.3       1 MOL1       -0.2552
      7 C           -5.2756    1.1209    0.0737 C.3       1 MOL1       -0.0473
      8 C           -6.7634    0.8996   -0.2656 C.3       1 MOL1       -0.0785
      9 C           -7.2268   -0.4503    0.3111 C.3       1 MOL1       -0.0843
     10 C           -6.3226   -1.5720   -0.2314 C.3       1 MOL1       -0.0785
     11 C           -4.8510   -1.2601    0.1072 C.3       1 MOL1       -0.0473
     12 N            1.5294   -0.2587   -0.0326 N.am      1 MOL1       -0.0610
     13 C            2.6660   -1.0985    0.0615 C.ar      1 MOL1        0.0828
     14 C            2.6350   -2.2685    0.8016 C.ar      1 MOL1       -0.0976
     15 C            3.7401   -3.0856    0.8724 C.ar      1 MOL1       -0.0931
     16 C            4.8980   -2.7489    0.2076 C.ar      1 MOL1       -0.1139
     17 C            4.9544   -1.5870   -0.5292 C.ar      1 MOL1       -0.0740
     18 C            3.8469   -0.7771   -0.5931 C.ar      1 MOL1        0.0260
     19 S            3.9280    0.7475   -1.5329 S.3       1 MOL1       -0.1317
     20 C            2.7956    1.7564   -0.5784 C.ar      1 MOL1        0.0260
     21 C            3.0070    3.1107   -0.4899 C.ar      1 MOL1       -0.0740
     22 C            2.1506    3.8778    0.2684 C.ar      1 MOL1       -0.1139
     23 C            1.0981    3.2854    0.9300 C.ar      1 MOL1       -0.0931
     24 C            0.8926    1.9280    0.8343 C.ar      1 MOL1       -0.0976
     25 C            1.7364    1.1392    0.0703 C.ar      1 MOL1        0.0828
     26  H          -0.4976    0.8077   -1.0112 H         1 MOL1        0.2045
     27  H          -2.0620   -1.6966   -0.6285 H         1 MOL1        0.0600
     28  H          -2.3096   -0.4744   -2.1390 H         1 MOL1        0.0600
     29  H          -2.7649    1.4439   -0.4487 H         1 MOL1        0.0581
     30  H          -2.8016    0.1683    1.0145 H         1 MOL1        0.0581
     31  H          -4.9480    2.1747   -0.3974 H         1 MOL1        0.0568
     32  H          -5.1456    1.1632    1.2659 H         1 MOL1        0.0568
     33  H          -7.4221    1.7858    0.2044 H         1 MOL1        0.0471
     34  H          -6.8994    0.8892   -1.4578 H         1 MOL1        0.0471
     35  H          -7.1402   -0.4185    1.5076 H         1 MOL1        0.0460
     36  H          -8.3661   -0.6586   -0.0029 H         1 MOL1        0.0460
     37  H          -6.6365   -2.6183    0.2651 H         1 MOL1        0.0471
     38  H          -6.4466   -1.6419   -1.4228 H         1 MOL1        0.0471
     39  H          -4.1939   -2.1560   -0.3419 H         1 MOL1        0.0568
     40  H          -4.7304   -1.2367    1.3010 H         1 MOL1        0.0568
     41  H           1.7992   -2.5247    1.2871 H         1 MOL1        0.0919
     42  H           3.7016   -3.9290    1.4084 H         1 MOL1        0.0906
     43  H           5.6979   -3.3467    0.2614 H         1 MOL1        0.0906
     44  H           5.7937   -1.3342   -1.0107 H         1 MOL1        0.0925
     45  H           3.7768    3.5344   -0.9672 H         1 MOL1        0.0925
     46  H           2.2948    4.8646    0.3410 H         1 MOL1        0.0906
     47  H           0.4795    3.8443    1.4824 H         1 MOL1        0.0906
     48  H           0.1248    1.5079    1.3181 H         1 MOL1        0.0919
@<TRIPOS>BOND
     1      1      2 2 
     2      2      3 am
     3      2     12 am
     4      3      4 1 
     5      4      5 1 
     6      5      6 1 
     7      6      7 1 
     8      7      8 1 
     9      8      9 1 
    10      9     10 1 
    11     10     11 1 
    12     11      6 1 
    13     12     13 1 
    14     13     14 ar
    15     14     15 ar
    16     15     16 ar
    17     16     17 ar
    18     17     18 ar
    19     18     13 ar
    20     18     19 1 
    21     19     20 1 
    22     20     21 ar
    23     21     22 ar
    24     22     23 ar
    25     23     24 ar
    26     24     25 ar
    27     25     12 1 
    28     25     20 ar
    29      3     26 1 
    30      4     27 1 
    31      4     28 1 
    32      5     29 1 
    33      5     30 1 
    34      7     31 1 
    35      7     32 1 
    36      8     33 1 
    37      8     34 1 
    38      9     35 1 
    39      9     36 1 
    40     10     37 1 
    41     10     38 1 
    42     11     39 1 
    43     11     40 1 
    44     14     41 1 
    45     15     42 1 
    46     16     43 1 
    47     17     44 1 
    48     21     45 1 
    49     22     46 1 
    50     23     47 1 
    51     24     48 1 
@<TRIPOS>SUBSTRUCTURE
     1 MOL1         1 MOLECULE          1 A
