# Molecule written by the XED library from Cresset
@<TRIPOS>MOLECULE
CHEMBL462873
    48     50      1
SMALL
USER_CHARGES
@<TRIPOS>ATOM
      1 C            5.0375   -3.6835   -0.0512 C.3       1 MOL1       -0.0471
      2 O            5.4787   -2.3110   -0.0410 O.3       1 MOL1       -0.1993
      3 C            4.5645   -1.3373    0.0214 C.ar      1 MOL1        0.0824
      4 C            3.2024   -1.6088    0.0842 C.ar      1 MOL1       -0.0742
      5 C            2.3048   -0.5750    0.1436 C.ar      1 MOL1       -0.0420
      6 C            0.7854   -0.6173    0.2297 C.3       1 MOL1       -0.0041
      7 C            0.3538    0.8418    0.1639 C.2       1 MOL1       -0.0323
      8 C           -0.7982    1.5169   -0.0256 C.2       1 MOL1       -0.0234
      9 C           -2.1256    0.8799   -0.1586 C.ar      1 MOL1       -0.0260
     10 C           -3.1719    1.6489   -0.6430 C.ar      1 MOL1       -0.0703
     11 C           -4.4245    1.1085   -0.7994 C.ar      1 MOL1       -0.0831
     12 C           -4.6643   -0.2072   -0.4638 C.ar      1 MOL1       -0.0406
     13 C           -6.0486   -0.8206   -0.6364 C.3       1 MOL1       -0.0034
     14 N           -6.9265   -0.7097    0.5464 N.3       1 MOL1       -0.2617
     15 C           -8.0462   -1.6519    0.4289 C.3       1 MOL1       -0.0710
     16 C           -7.4519    0.6583    0.6790 C.3       1 MOL1       -0.0710
     17 C           -3.6298   -0.9763    0.0271 C.ar      1 MOL1       -0.0831
     18 C           -2.3730   -0.4423    0.1785 C.ar      1 MOL1       -0.0703
     19 C            1.5876    1.5890    0.1854 C.2       1 MOL1        0.1921
     20 O            1.6956    2.8081    0.2138 O.2       1 MOL1       -0.3952
     21 C            2.7556    0.7231    0.1404 C.ar      1 MOL1       -0.0045
     22 C            4.1075    1.0225    0.0840 C.ar      1 MOL1       -0.0552
     23 C            5.0169   -0.0144    0.0248 C.ar      1 MOL1        0.0721
     24 O            6.3434    0.2028   -0.0298 O.3       1 MOL1       -0.2025
     25 C            6.8266    1.5605   -0.0382 C.3       1 MOL1       -0.0471
     26  H           4.3289   -3.8744   -1.0010 H         1 MOL1        0.0618
     27  H           4.4310   -3.9182    0.9571 H         1 MOL1        0.0618
     28  H           5.9923   -4.4075   -0.1172 H         1 MOL1        0.0618
     29  H           2.8754   -2.5531    0.0871 H         1 MOL1        0.0926
     30  H           0.2966   -1.2564   -0.6605 H         1 MOL1        0.0524
     31  H           0.4780   -1.0789    1.2939 H         1 MOL1        0.0524
     32  H          -0.7476    2.5040   -0.0976 H         1 MOL1        0.0912
     33  H          -3.0121    2.6060   -0.8846 H         1 MOL1        0.0910
     34  H          -5.1685    1.6735   -1.1561 H         1 MOL1        0.0908
     35  H          -6.5863   -0.3524   -1.6025 H         1 MOL1        0.0598
     36  H          -5.8641   -1.9837   -0.8726 H         1 MOL1        0.0598
     37  H          -8.7861   -1.5352    1.3665 H         1 MOL1        0.0543
     38  H          -8.6511   -1.4270   -0.5827 H         1 MOL1        0.0543
     39  H          -7.6390   -2.7805    0.4096 H         1 MOL1        0.0543
     40  H          -8.1189    0.7418    1.6730 H         1 MOL1        0.0543
     41  H          -8.1347    0.9328   -0.2689 H         1 MOL1        0.0543
     42  H          -6.5509    1.4447    0.7626 H         1 MOL1        0.0543
     43  H          -3.7956   -1.9313    0.2729 H         1 MOL1        0.0908
     44  H          -1.6348   -1.0120    0.5356 H         1 MOL1        0.0910
     45  H           4.4153    1.9730    0.0837 H         1 MOL1        0.0928
     46  H           8.0251    1.5557   -0.0962 H         1 MOL1        0.0618
     47  H           6.4777    2.1170    0.9660 H         1 MOL1        0.0618
     48  H           6.3843    2.1383   -0.9924 H         1 MOL1        0.0618
@<TRIPOS>BOND
     1      1      2 1 
     2      2      3 1 
     3      3      4 ar
     4      4      5 ar
     5      5      6 1 
     6      6      7 1 
     7      7      8 2 
     8      7     19 1 
     9      8      9 1 
    10      9     10 ar
    11     10     11 ar
    12     11     12 ar
    13     12     13 1 
    14     12     17 ar
    15     13     14 1 
    16     14     15 1 
    17     14     16 1 
    18     17     18 ar
    19     18      9 ar
    20     19     20 2 
    21     19     21 1 
    22     21      5 ar
    23     21     22 ar
    24     22     23 ar
    25     23      3 ar
    26     23     24 1 
    27     24     25 1 
    28      1     26 1 
    29      1     27 1 
    30      1     28 1 
    31      4     29 1 
    32      6     30 1 
    33      6     31 1 
    34      8     32 1 
    35     10     33 1 
    36     11     34 1 
    37     13     35 1 
    38     13     36 1 
    39     15     37 1 
    40     15     38 1 
    41     15     39 1 
    42     16     40 1 
    43     16     41 1 
    44     16     42 1 
    45     17     43 1 
    46     18     44 1 
    47     22     45 1 
    48     25     46 1 
    49     25     47 1 
    50     25     48 1 
@<TRIPOS>SUBSTRUCTURE
     1 MOL1         1 MOLECULE          1 A
