# Molecule written by the XED library from Cresset
@<TRIPOS>MOLECULE
CHEMBL426441
    56     60      1
SMALL
USER_CHARGES
@<TRIPOS>ATOM
      1 C            4.5084    3.3708   -0.0843 C.3       1 MOL1        0.0507
      2 N            5.3507    2.1700    0.0082 N.am      1 MOL1       -0.2338
      3 C            6.6876    2.2183    0.0646 C.2       1 MOL1        0.3037
      4 O            7.3669    3.2339    0.0621 O.2       1 MOL1       -0.4157
      5 C            7.2127    0.7854    0.1312 C.3       1 MOL1        0.0274
      6 C            5.9386   -0.0545    0.1010 C.ar      1 MOL1       -0.0389
      7 C            5.7120   -1.4055    0.1321 C.ar      1 MOL1       -0.0711
      8 C            4.3825   -1.7963    0.0807 C.ar      1 MOL1        0.0839
      9 O            3.9236   -3.0583    0.0963 O.3       1 MOL1       -0.0858
     10 N            2.5082   -2.9800    0.0127 N.ar      1 MOL1       -0.2643
     11 C            2.1987   -1.7209   -0.0401 C.ar      1 MOL1        0.1083
     12 C            0.7787   -1.2070   -0.1615 C.3       1 MOL1       -0.0333
     13 C           -0.3395   -2.1559    0.3133 C.3       1 MOL1       -0.0806
     14 C           -1.7059   -1.7259   -0.2605 C.3       1 MOL1       -0.0563
     15 C           -2.1524   -0.3434    0.2546 C.3       1 MOL1       -0.0743
     16 C           -3.4897    0.0219   -0.4154 C.3       1 MOL1       -0.0462
     17 N           -4.5497   -0.9581   -0.1033 N.3       1 MOL1       -0.2521
     18 C           -5.8072   -0.5913   -0.7858 C.3       1 MOL1       -0.0032
     19 C           -6.4808    0.6912   -0.3105 C.ar      1 MOL1       -0.0509
     20 C           -6.1959    1.8930   -0.9220 C.ar      1 MOL1       -0.0846
     21 C           -6.8087    3.0516   -0.5023 C.ar      1 MOL1       -0.0900
     22 C           -7.7158    3.0138    0.5312 C.ar      1 MOL1       -0.0906
     23 C           -8.0057    1.8166    1.1443 C.ar      1 MOL1       -0.0900
     24 C           -7.3885    0.6600    0.7252 C.ar      1 MOL1       -0.0846
     25 C           -4.1330   -2.3102   -0.5282 C.3       1 MOL1       -0.0462
     26 C           -2.7970   -2.7467    0.1121 C.3       1 MOL1       -0.0743
     27 C            3.3539   -0.8882    0.0011 C.ar      1 MOL1       -0.0007
     28 C            3.5847    0.4825   -0.0270 C.ar      1 MOL1       -0.0740
     29 C            4.9058    0.8601    0.0261 C.ar      1 MOL1        0.0677
     30  H           3.5198    3.2193    0.5787 H         1 MOL1        0.0570
     31  H           4.1970    3.5564   -1.2283 H         1 MOL1        0.0570
     32  H           5.1214    4.3181    0.3238 H         1 MOL1        0.0570
     33  H           7.9011    0.5427   -0.8215 H         1 MOL1        0.0558
     34  H           7.8177    0.6021    1.1512 H         1 MOL1        0.0558
     35  H           6.4589   -2.0678    0.1877 H         1 MOL1        0.0926
     36  H           0.7255   -0.1986    0.4850 H         1 MOL1        0.0503
     37  H           0.6010   -0.9338   -1.3160 H         1 MOL1        0.0503
     38  H          -0.0971   -3.2629   -0.0822 H         1 MOL1        0.0465
     39  H          -0.3818   -2.1649    1.5126 H         1 MOL1        0.0465
     40  H          -1.6367   -1.6919   -1.4579 H         1 MOL1        0.0488
     41  H          -1.3524    0.4980   -0.0440 H         1 MOL1        0.0474
     42  H          -2.2871   -0.3752    1.4464 H         1 MOL1        0.0474
     43  H          -3.8054    1.1091   -0.0197 H         1 MOL1        0.0568
     44  H          -3.3139    0.0649   -1.6015 H         1 MOL1        0.0568
     45  H          -5.6047   -0.5161   -1.9668 H         1 MOL1        0.0598
     46  H          -6.6019   -1.4765   -0.6215 H         1 MOL1        0.0598
     47  H          -5.5387    1.9233   -1.6751 H         1 MOL1        0.0908
     48  H          -6.5956    3.9204   -0.9492 H         1 MOL1        0.0906
     49  H          -8.1635    3.8546    0.8357 H         1 MOL1        0.0906
     50  H          -8.6659    1.7871    1.8948 H         1 MOL1        0.0906
     51  H          -7.6026   -0.2079    1.1733 H         1 MOL1        0.0908
     52  H          -4.9733   -3.1108   -0.2223 H         1 MOL1        0.0568
     53  H          -4.0035   -2.3165   -1.7211 H         1 MOL1        0.0568
     54  H          -2.9185   -2.7902    1.3051 H         1 MOL1        0.0474
     55  H          -2.4918   -3.8315   -0.2999 H         1 MOL1        0.0474
     56  H           2.8405    1.1480   -0.0835 H         1 MOL1        0.0923
@<TRIPOS>BOND
     1      1      2 1 
     2      2      3 am
     3      3      4 2 
     4      3      5 1 
     5      5      6 1 
     6      6      7 ar
     7      7      8 ar
     8      8      9 ar
     9      9     10 ar
    10     10     11 ar
    11     11     12 1 
    12     11     27 ar
    13     12     13 1 
    14     13     14 1 
    15     14     15 1 
    16     15     16 1 
    17     16     17 1 
    18     17     18 1 
    19     17     25 1 
    20     18     19 1 
    21     19     20 ar
    22     20     21 ar
    23     21     22 ar
    24     22     23 ar
    25     23     24 ar
    26     24     19 ar
    27     25     26 1 
    28     26     14 1 
    29     27      8 ar
    30     27     28 ar
    31     28     29 ar
    32     29      2 1 
    33     29      6 ar
    34      1     30 1 
    35      1     31 1 
    36      1     32 1 
    37      5     33 1 
    38      5     34 1 
    39      7     35 1 
    40     12     36 1 
    41     12     37 1 
    42     13     38 1 
    43     13     39 1 
    44     14     40 1 
    45     15     41 1 
    46     15     42 1 
    47     16     43 1 
    48     16     44 1 
    49     18     45 1 
    50     18     46 1 
    51     20     47 1 
    52     21     48 1 
    53     22     49 1 
    54     23     50 1 
    55     24     51 1 
    56     25     52 1 
    57     25     53 1 
    58     26     54 1 
    59     26     55 1 
    60     28     56 1 
@<TRIPOS>SUBSTRUCTURE
     1 MOL1         1 MOLECULE          1 A
