# Molecule written by the XED library from Cresset
@<TRIPOS>MOLECULE
CHEMBL187812
    56     59      1
SMALL
USER_CHARGES
@<TRIPOS>ATOM
      1 C            6.9728   -2.1249    0.0806 C.3       1 MOL1       -0.0471
      2 O            6.7896   -0.6951    0.0531 O.3       1 MOL1       -0.2030
      3 C            5.5386   -0.1987    0.0426 C.ar      1 MOL1        0.0639
      4 C            4.4265   -1.0214    0.0768 C.ar      1 MOL1       -0.0741
      5 C            3.1601   -0.4633    0.0612 C.ar      1 MOL1       -0.0258
      6 C            1.8617   -1.1023    0.0933 C.ar      1 MOL1       -0.0825
      7 C            0.8394   -0.2659    0.0588 C.ar      1 MOL1       -0.0015
      8 S            1.3489    1.4478   -0.0131 S.3       1 MOL1       -0.1263
      9 C            3.0413    0.9015    0.0087 C.ar      1 MOL1        0.0268
     10 C            4.1210    1.7484   -0.0230 C.ar      1 MOL1       -0.0641
     11 C            5.3877    1.1919   -0.0046 C.ar      1 MOL1        0.0693
     12 O            6.4954    1.9526   -0.0309 O.3       1 MOL1       -0.2012
     13 C            6.3530    3.3870   -0.0705 C.3       1 MOL1       -0.0471
     14 C           -0.6432   -0.5957    0.0826 C.3       1 MOL1        0.0103
     15 C           -1.2077   -0.8719    1.4879 C.3       1 MOL1       -0.0656
     16 C           -2.7462   -0.7571    1.4408 C.3       1 MOL1       -0.0516
     17 N           -3.4338   -1.5878    0.3667 N.4       1 MOL1       -0.1531
     18 C           -3.5376   -3.0128    0.8581 C.3       1 MOL1       -0.0795
     19 C           -4.8530   -1.0852    0.1523 C.3       1 MOL1       -0.0096
     20 C           -5.1721    0.3905   -0.1348 C.ar      1 MOL1       -0.0534
     21 C           -4.2944    1.3505   -0.6012 C.ar      1 MOL1       -0.0850
     22 C           -4.7093    2.6436   -0.8237 C.ar      1 MOL1       -0.0901
     23 C           -6.0143    2.9994   -0.5809 C.ar      1 MOL1       -0.0906
     24 C           -6.9003    2.0560   -0.1173 C.ar      1 MOL1       -0.0901
     25 C           -6.4783    0.7642    0.1004 C.ar      1 MOL1       -0.0850
     26 C           -2.6889   -1.6045   -0.9621 C.3       1 MOL1       -0.0247
     27 C           -1.1488   -1.6990   -0.8685 C.3       1 MOL1        0.0054
     28 O           -0.7463   -3.0089   -0.4376 O.3       1 MOL1       -0.4424
     29  H           8.1467   -2.3737    0.0692 H         1 MOL1        0.0618
     30  H           6.4808   -2.5751    1.0783 H         1 MOL1        0.0618
     31  H           6.4533   -2.6162   -0.8832 H         1 MOL1        0.0618
     32  H           4.5325   -2.0147    0.1124 H         1 MOL1        0.0928
     33  H           1.7514   -2.0941    0.1399 H         1 MOL1        0.0927
     34  H           3.9915    2.7391   -0.0582 H         1 MOL1        0.0943
     35  H           5.7503    3.7594    0.8982 H         1 MOL1        0.0618
     36  H           5.7542    3.7041   -1.0609 H         1 MOL1        0.0618
     37  H           7.4398    3.8955   -0.0831 H         1 MOL1        0.0618
     38  H          -1.1468    0.4245   -0.3013 H         1 MOL1        0.0556
     39  H          -0.8710   -1.9638    1.8533 H         1 MOL1        0.0473
     40  H          -0.7877   -0.0547    2.2601 H         1 MOL1        0.0473
     41  H          -2.9715    0.4086    1.2895 H         1 MOL1        0.0544
     42  H          -3.1788   -1.0351    2.5253 H         1 MOL1        0.0544
     43  H          -4.0875   -3.0673    1.9234 H         1 MOL1        0.0518
     44  H          -4.1729   -3.6749    0.0847 H         1 MOL1        0.0518
     45  H          -2.4505   -3.5033    0.9744 H         1 MOL1        0.0518
     46  H          -5.4717   -1.3550    1.1459 H         1 MOL1        0.0574
     47  H          -5.3354   -1.7200   -0.7450 H         1 MOL1        0.0574
     48  H          -3.3410    1.1154   -0.7755 H         1 MOL1        0.0908
     49  H          -4.0597    3.3254   -1.1603 H         1 MOL1        0.0906
     50  H          -6.3173    3.9391   -0.7400 H         1 MOL1        0.0906
     51  H          -7.8511    2.3084    0.0616 H         1 MOL1        0.0906
     52  H          -7.1303    0.0849    0.4368 H         1 MOL1        0.0908
     53  H          -2.9227   -0.6295   -1.6144 H         1 MOL1        0.0564
     54  H          -3.0695   -2.5278   -1.6281 H         1 MOL1        0.0564
     55  H          -0.6934   -1.5077   -1.9622 H         1 MOL1        0.0674
     56  H           0.2531   -3.1136   -0.4599 H         1 MOL1        0.3291
@<TRIPOS>BOND
     1      1      2 1 
     2      2      3 1 
     3      3      4 ar
     4      4      5 ar
     5      5      6 ar
     6      6      7 ar
     7      7      8 ar
     8      7     14 1 
     9      8      9 ar
    10      9      5 ar
    11      9     10 ar
    12     10     11 ar
    13     11      3 ar
    14     11     12 1 
    15     12     13 1 
    16     14     15 1 
    17     15     16 1 
    18     16     17 1 
    19     17     18 1 
    20     17     19 1 
    21     17     26 1 
    22     19     20 1 
    23     20     21 ar
    24     21     22 ar
    25     22     23 ar
    26     23     24 ar
    27     24     25 ar
    28     25     20 ar
    29     26     27 1 
    30     27     14 1 
    31     27     28 1 
    32      1     29 1 
    33      1     30 1 
    34      1     31 1 
    35      4     32 1 
    36      6     33 1 
    37     10     34 1 
    38     13     35 1 
    39     13     36 1 
    40     13     37 1 
    41     14     38 1 
    42     15     39 1 
    43     15     40 1 
    44     16     41 1 
    45     16     42 1 
    46     18     43 1 
    47     18     44 1 
    48     18     45 1 
    49     19     46 1 
    50     19     47 1 
    51     21     48 1 
    52     22     49 1 
    53     23     50 1 
    54     24     51 1 
    55     25     52 1 
    56     26     53 1 
    57     26     54 1 
    58     27     55 1 
    59     28     56 1 
@<TRIPOS>SUBSTRUCTURE
     1 MOL1         1 MOLECULE          1 A
