# Molecule written by the XED library from Cresset
@<TRIPOS>MOLECULE
CHEMBL1222025
    50     55      1
SMALL
USER_CHARGES
@<TRIPOS>ATOM
      1 O           -0.3049    3.8651    0.3756 O.3       1 MOL1       -0.4344
      2 C            0.4396    2.9055   -0.3882 C.3       1 MOL1        0.0391
      3 C            1.9105    3.2544   -0.3289 C.2       1 MOL1       -0.0930
      4 C            2.8685    2.4355    0.0522 C.2       1 MOL1       -0.0778
      5 C            4.3583    2.6280    0.0471 C.3       1 MOL1       -0.0387
      6 C            4.7554    1.2866   -0.5910 C.3       1 MOL1       -0.0396
      7 N            3.8436    0.3189    0.0471 N.3       1 MOL1       -0.2400
      8 C            3.6149   -0.8562   -0.8253 C.3       1 MOL1       -0.0031
      9 C            2.4125   -1.6801   -0.3752 C.ar      1 MOL1       -0.0599
     10 C            2.5091   -3.0541   -0.2514 C.ar      1 MOL1       -0.0750
     11 C            1.3791   -3.7179    0.1578 C.ar      1 MOL1        0.0697
     12 O            1.2190   -5.0203    0.3455 O.3       1 MOL1       -0.1768
     13 C           -0.1521   -5.2764    0.7716 C.3       1 MOL1        0.0590
     14 O           -0.7115   -3.9299    0.8030 O.3       1 MOL1       -0.1768
     15 C            0.2212   -3.0635    0.4325 C.ar      1 MOL1        0.0695
     16 C            0.1083   -1.6999    0.3168 C.ar      1 MOL1       -0.0759
     17 C            1.2303   -1.0033   -0.1009 C.ar      1 MOL1       -0.0576
     18 C            1.2893    0.5149   -0.2973 C.3       1 MOL1        0.0181
     19 C            0.1448    1.4735    0.1316 C.3       1 MOL1        0.0405
     20 O           -1.1522    1.0418   -0.3377 O.3       1 MOL1       -0.1594
     21 C           -2.2561    1.5968    0.2240 C.2       1 MOL1        0.3089
     22 O           -2.1557    2.5000    1.0439 O.2       1 MOL1       -0.3735
     23 C           -3.6058    1.1011   -0.1406 C.ar      1 MOL1        0.0074
     24 C           -4.7389    1.6942    0.3991 C.ar      1 MOL1       -0.0570
     25 C           -5.9940    1.2385    0.0773 C.ar      1 MOL1       -0.0890
     26 C           -6.1419    0.1801   -0.7905 C.ar      1 MOL1       -0.0747
     27 C           -5.0296   -0.4201   -1.3366 C.ar      1 MOL1       -0.0890
     28 C           -3.7743    0.0361   -1.0156 C.ar      1 MOL1       -0.0570
     29 C            2.5804    1.0040    0.4002 C.3       1 MOL1        0.0252
     30 H            0.1024    2.9937   -1.5371 H         1 MOL1        0.0705
     31 H            1.4236    0.6893   -1.4768 H         1 MOL1        0.0555
     32 H            0.1317    1.4895    1.3313 H         1 MOL1        0.0692
     33 H            2.4759    0.9054    1.5916 H         1 MOL1        0.0625
     34  H          -0.1464    4.8009    0.0422 H         1 MOL1        0.3291
     35  H           2.1736    4.1686   -0.6025 H         1 MOL1        0.0901
     36  H           4.7693    2.6671    1.1738 H         1 MOL1        0.0501
     37  H           4.7043    3.5928   -0.5768 H         1 MOL1        0.0501
     38  H           4.5509    1.3936   -1.7689 H         1 MOL1        0.0571
     39  H           5.9067    1.0120   -0.3936 H         1 MOL1        0.0571
     40  H           4.6111   -1.5265   -0.8264 H         1 MOL1        0.0598
     41  H           3.3892   -0.5251   -1.9565 H         1 MOL1        0.0598
     42  H           3.3598   -3.5404   -0.4509 H         1 MOL1        0.0926
     43  H          -0.7271   -5.9563   -0.0329 H         1 MOL1        0.0806
     44  H          -0.1777   -5.7779    1.8614 H         1 MOL1        0.0806
     45  H          -0.7502   -1.2324    0.5239 H         1 MOL1        0.0926
     46  H          -4.6400    2.4625    1.0314 H         1 MOL1        0.0910
     47  H          -6.8010    1.6754    0.4743 H         1 MOL1        0.0906
     48  H          -7.0556   -0.1524   -1.0238 H         1 MOL1        0.0906
     49  H          -5.1358   -1.1890   -1.9670 H         1 MOL1        0.0906
     50  H          -2.9714   -0.4058   -1.4157 H         1 MOL1        0.0910
@<TRIPOS>BOND
     1      1      2 1 
     2      2      3 1 
     3      3      4 2 
     4      4      5 1 
     5      5      6 1 
     6      6      7 1 
     7      7      8 1 
     8      8      9 1 
     9      9     10 ar
    10     10     11 ar
    11     11     12 1 
    12     12     13 1 
    13     13     14 1 
    14     14     15 1 
    15     15     11 ar
    16     15     16 ar
    17     16     17 ar
    18     17      9 ar
    19     17     18 1 
    20     18     19 1 
    21     18     29 1 
    22     19      2 1 
    23     19     20 1 
    24     20     21 1 
    25     21     22 2 
    26     21     23 1 
    27     23     24 ar
    28     24     25 ar
    29     25     26 ar
    30     26     27 ar
    31     27     28 ar
    32     28     23 ar
    33     29      4 1 
    34     29      7 1 
    35      1     34 1 
    36      2     30 1 
    37      3     35 1 
    38      5     36 1 
    39      5     37 1 
    40      6     38 1 
    41      6     39 1 
    42      8     40 1 
    43      8     41 1 
    44     10     42 1 
    45     13     43 1 
    46     13     44 1 
    47     16     45 1 
    48     18     31 1 
    49     19     32 1 
    50     24     46 1 
    51     25     47 1 
    52     26     48 1 
    53     27     49 1 
    54     28     50 1 
    55     29     33 1 
@<TRIPOS>SUBSTRUCTURE
     1 MOL1         1 MOLECULE          1 A
