# Molecule written by the XED library from Cresset
@<TRIPOS>MOLECULE
CHEMBL168938
    55     58      1
SMALL
USER_CHARGES
@<TRIPOS>ATOM
      1 C            6.3783   -3.5572    0.0783 C.3       1 MOL1       -0.0471
      2 O            6.7117   -2.1560   -0.0003 O.3       1 MOL1       -0.1992
      3 C            5.7241   -1.2543   -0.0333 C.ar      1 MOL1        0.0834
      4 C            4.3868   -1.6262    0.0431 C.ar      1 MOL1       -0.0741
      5 C            3.4093   -0.6686    0.0173 C.ar      1 MOL1       -0.0408
      6 C            1.9027   -0.8465    0.1242 C.3       1 MOL1       -0.0043
      7 C            1.3470    0.5599   -0.0357 C.2       1 MOL1       -0.0313
      8 C            0.1380    1.1007   -0.1960 C.2       1 MOL1       -0.0523
      9 C           -1.2536    0.5016   -0.1833 C.3       1 MOL1       -0.0233
     10 C           -2.1271    1.3142    0.7904 C.3       1 MOL1       -0.0701
     11 C           -3.6035    0.8564    0.7268 C.3       1 MOL1       -0.0455
     12 N           -3.7952   -0.5541    0.3133 N.3       1 MOL1       -0.2520
     13 C           -5.0849   -1.0722    0.8157 C.3       1 MOL1       -0.0032
     14 C           -6.3448   -0.4546    0.2229 C.ar      1 MOL1       -0.0509
     15 C           -6.7746    0.7949    0.6143 C.ar      1 MOL1       -0.0846
     16 C           -7.9266    1.3330    0.0892 C.ar      1 MOL1       -0.0900
     17 C           -8.6604    0.6190   -0.8292 C.ar      1 MOL1       -0.0906
     18 C           -8.2383   -0.6299   -1.2242 C.ar      1 MOL1       -0.0900
     19 C           -7.0824   -1.1629   -0.6998 C.ar      1 MOL1       -0.0846
     20 C           -2.6909   -1.3908    0.8151 C.3       1 MOL1       -0.0455
     21 C           -1.3283   -0.9974    0.1922 C.3       1 MOL1       -0.0701
     22 C            2.5146    1.4202   -0.1171 C.2       1 MOL1        0.1999
     23 O            2.5209    2.6405   -0.1972 O.2       1 MOL1       -0.3896
     24 C            3.7523    0.6572   -0.0995 C.ar      1 MOL1       -0.0047
     25 C            5.0771    1.0584   -0.1819 C.ar      1 MOL1       -0.0542
     26 C            6.0676    0.0968   -0.1439 C.ar      1 MOL1        0.0723
     27 O            7.3726    0.4164   -0.2079 O.3       1 MOL1       -0.2025
     28 C            7.7496    1.8068   -0.2603 C.3       1 MOL1       -0.0471
     29  H           5.7733   -3.7707    1.0928 H         1 MOL1        0.0618
     30  H           7.3869   -4.2081    0.0788 H         1 MOL1        0.0618
     31  H           5.7086   -3.8697   -0.8675 H         1 MOL1        0.0618
     32  H           4.1335   -2.5900    0.1229 H         1 MOL1        0.0926
     33  H           1.4766   -1.5872   -0.7191 H         1 MOL1        0.0524
     34  H           1.6847   -1.2738    1.2245 H         1 MOL1        0.0524
     35  H           0.1546    2.0790   -0.3384 H         1 MOL1        0.0887
     36  H          -1.7319    0.6526   -1.2733 H         1 MOL1        0.0514
     37  H          -1.7024    1.1291    1.8975 H         1 MOL1        0.0476
     38  H          -2.0592    2.4858    0.5374 H         1 MOL1        0.0476
     39  H          -4.1972    1.5322   -0.0671 H         1 MOL1        0.0568
     40  H          -4.0779    1.0660    1.8106 H         1 MOL1        0.0568
     41  H          -5.1374   -2.2482    0.5792 H         1 MOL1        0.0598
     42  H          -5.1288   -0.9606    2.0095 H         1 MOL1        0.0598
     43  H          -6.2480    1.3153    1.2846 H         1 MOL1        0.0908
     44  H          -8.2306    2.2414    0.3763 H         1 MOL1        0.0906
     45  H          -9.4996    1.0082   -1.2096 H         1 MOL1        0.0906
     46  H          -8.7724   -1.1497   -1.8913 H         1 MOL1        0.0906
     47  H          -6.7806   -2.0717   -0.9870 H         1 MOL1        0.0908
     48  H          -2.6459   -1.2570    2.0083 H         1 MOL1        0.0568
     49  H          -2.8852   -2.5519    0.5761 H         1 MOL1        0.0568
     50  H          -1.1196   -1.6410   -0.7995 H         1 MOL1        0.0476
     51  H          -0.4995   -1.2564    1.0152 H         1 MOL1        0.0476
     52  H           5.3063    2.0281   -0.2638 H         1 MOL1        0.0928
     53  H           8.9472    1.8838   -0.2819 H         1 MOL1        0.0618
     54  H           7.3005    2.3164   -1.2505 H         1 MOL1        0.0618
     55  H           7.3345    2.3788    0.7093 H         1 MOL1        0.0618
@<TRIPOS>BOND
     1      1      2 1 
     2      2      3 1 
     3      3      4 ar
     4      4      5 ar
     5      5      6 1 
     6      6      7 1 
     7      7      8 2 
     8      7     22 1 
     9      8      9 1 
    10      9     10 1 
    11     10     11 1 
    12     11     12 1 
    13     12     13 1 
    14     12     20 1 
    15     13     14 1 
    16     14     15 ar
    17     15     16 ar
    18     16     17 ar
    19     17     18 ar
    20     18     19 ar
    21     19     14 ar
    22     20     21 1 
    23     21      9 1 
    24     22     23 2 
    25     22     24 1 
    26     24      5 ar
    27     24     25 ar
    28     25     26 ar
    29     26      3 ar
    30     26     27 1 
    31     27     28 1 
    32      1     29 1 
    33      1     30 1 
    34      1     31 1 
    35      4     32 1 
    36      6     33 1 
    37      6     34 1 
    38      8     35 1 
    39      9     36 1 
    40     10     37 1 
    41     10     38 1 
    42     11     39 1 
    43     11     40 1 
    44     13     41 1 
    45     13     42 1 
    46     15     43 1 
    47     16     44 1 
    48     17     45 1 
    49     18     46 1 
    50     19     47 1 
    51     20     48 1 
    52     20     49 1 
    53     21     50 1 
    54     21     51 1 
    55     25     52 1 
    56     28     53 1 
    57     28     54 1 
    58     28     55 1 
@<TRIPOS>SUBSTRUCTURE
     1 MOL1         1 MOLECULE          1 A
