# Molecule written by the XED library from Cresset
@<TRIPOS>MOLECULE
CHEMBL328468
    53     57      1
SMALL
USER_CHARGES
@<TRIPOS>ATOM
      1 O            8.5098   -2.6073   -0.0284 O.2       1 MOL1       -0.4162
      2 C            7.6338   -1.7569   -0.0431 C.2       1 MOL1        0.3045
      3 C            7.8359   -0.2473   -0.1558 C.3       1 MOL1        0.0272
      4 C            6.4100    0.2949   -0.1161 C.ar      1 MOL1       -0.0392
      5 C            5.8881    1.5601   -0.1731 C.ar      1 MOL1       -0.0711
      6 C            4.5059    1.6463   -0.1021 C.ar      1 MOL1        0.0838
      7 O            3.7821    2.7761   -0.1367 O.3       1 MOL1       -0.0858
      8 N            2.4216    2.3917   -0.0197 N.ar      1 MOL1       -0.2643
      9 C            2.3922    1.0975    0.0672 C.ar      1 MOL1        0.1083
     10 C            1.1028    0.3151    0.2310 C.3       1 MOL1       -0.0333
     11 C           -0.1487    0.9841   -0.3746 C.3       1 MOL1       -0.0806
     12 C           -1.4456    0.4361    0.2560 C.3       1 MOL1       -0.0563
     13 C           -2.6546    1.2559   -0.2317 C.3       1 MOL1       -0.0743
     14 C           -3.9272    0.7250    0.4601 C.3       1 MOL1       -0.0462
     15 N           -4.1647   -0.7020    0.1557 N.3       1 MOL1       -0.2521
     16 C           -5.3732   -1.1851    0.8521 C.3       1 MOL1       -0.0032
     17 C           -6.6957   -0.6421    0.3289 C.ar      1 MOL1       -0.0509
     18 C           -7.2919    0.4385    0.9414 C.ar      1 MOL1       -0.0846
     19 C           -8.4929    0.9232    0.4769 C.ar      1 MOL1       -0.0900
     20 C           -9.1037    0.3269   -0.6023 C.ar      1 MOL1       -0.0906
     21 C           -8.5128   -0.7532   -1.2169 C.ar      1 MOL1       -0.0900
     22 C           -7.3108   -1.2359   -0.7517 C.ar      1 MOL1       -0.0846
     23 C           -3.0024   -1.5092    0.5724 C.3       1 MOL1       -0.0462
     24 C           -1.6955   -1.0431   -0.1001 C.3       1 MOL1       -0.0743
     25 C            3.7024    0.5362    0.0199 C.ar      1 MOL1       -0.0007
     26 C            4.2336   -0.7482    0.0744 C.ar      1 MOL1       -0.0743
     27 C            5.6038   -0.8202    0.0017 C.ar      1 MOL1        0.0669
     28 N            6.3211   -1.9983    0.0392 N.am      1 MOL1       -0.2163
     29  H           8.4718    0.1651    0.7746 H         1 MOL1        0.0558
     30  H           8.3682    0.0342   -1.1936 H         1 MOL1        0.0558
     31  H           6.4674    2.3706   -0.2593 H         1 MOL1        0.0926
     32  H           1.2590   -0.7569   -0.2843 H         1 MOL1        0.0503
     33  H           0.9340    0.1553    1.4076 H         1 MOL1        0.0503
     34  H          -0.1021    2.1626   -0.1501 H         1 MOL1        0.0465
     35  H          -0.1653    0.8142   -1.5626 H         1 MOL1        0.0465
     36  H          -1.3887    0.5475    1.4494 H         1 MOL1        0.0488
     37  H          -2.7621    1.1434   -1.4215 H         1 MOL1        0.0474
     38  H          -2.5018    2.4123    0.0489 H         1 MOL1        0.0474
     39  H          -3.7934    0.8703    1.6436 H         1 MOL1        0.0568
     40  H          -4.8594    1.3798    0.0840 H         1 MOL1        0.0568
     41  H          -5.2733   -0.9512    2.0252 H         1 MOL1        0.0598
     42  H          -5.4388   -2.3788    0.7398 H         1 MOL1        0.0598
     43  H          -6.8505    0.8710    1.7278 H         1 MOL1        0.0908
     44  H          -8.9222    1.7081    0.9240 H         1 MOL1        0.0906
     45  H          -9.9774    0.6774   -0.9390 H         1 MOL1        0.0906
     46  H          -8.9571   -1.1878   -2.0003 H         1 MOL1        0.0906
     47  H          -6.8838   -2.0223   -1.1981 H         1 MOL1        0.0908
     48  H          -2.8782   -1.4210    1.7628 H         1 MOL1        0.0568
     49  H          -3.1760   -2.6602    0.2806 H         1 MOL1        0.0568
     50  H          -1.7911   -1.1606   -1.2905 H         1 MOL1        0.0474
     51  H          -0.7967   -1.7275    0.3024 H         1 MOL1        0.0474
     52  H           3.6588   -1.5617    0.1618 H         1 MOL1        0.0923
     53  H           5.9656   -2.8012    0.1068 H         1 MOL1        0.2055
@<TRIPOS>BOND
     1      1      2 2 
     2      2      3 1 
     3      3      4 1 
     4      4      5 ar
     5      5      6 ar
     6      6      7 ar
     7      7      8 ar
     8      8      9 ar
     9      9     10 1 
    10      9     25 ar
    11     10     11 1 
    12     11     12 1 
    13     12     13 1 
    14     13     14 1 
    15     14     15 1 
    16     15     16 1 
    17     15     23 1 
    18     16     17 1 
    19     17     18 ar
    20     18     19 ar
    21     19     20 ar
    22     20     21 ar
    23     21     22 ar
    24     22     17 ar
    25     23     24 1 
    26     24     12 1 
    27     25      6 ar
    28     25     26 ar
    29     26     27 ar
    30     27      4 ar
    31     27     28 1 
    32     28      2 am
    33      3     29 1 
    34      3     30 1 
    35      5     31 1 
    36     10     32 1 
    37     10     33 1 
    38     11     34 1 
    39     11     35 1 
    40     12     36 1 
    41     13     37 1 
    42     13     38 1 
    43     14     39 1 
    44     14     40 1 
    45     16     41 1 
    46     16     42 1 
    47     18     43 1 
    48     19     44 1 
    49     20     45 1 
    50     21     46 1 
    51     22     47 1 
    52     23     48 1 
    53     23     49 1 
    54     24     50 1 
    55     24     51 1 
    56     26     52 1 
    57     28     53 1 
@<TRIPOS>SUBSTRUCTURE
     1 MOL1         1 MOLECULE          1 A
