# Molecule written by the XED library from Cresset
@<TRIPOS>MOLECULE
CHEMBL433379
    51     54      1
SMALL
USER_CHARGES
@<TRIPOS>ATOM
      1 C           -5.7568   -3.6771   -0.0017 C.3       1 MOL1       -0.0802
      2 C           -5.6514   -2.1650    0.0104 C.ar      1 MOL1       -0.0801
      3 C           -6.8007   -1.4012   -0.1797 C.ar      1 MOL1       -0.0632
      4 C           -6.7493   -0.0291   -0.1712 C.ar      1 MOL1       -0.0784
      5 C           -5.5168    0.5621    0.0335 C.ar      1 MOL1        0.1031
      6 O           -5.2607    1.8770    0.0767 O.3       1 MOL1       -0.0824
      7 N           -3.8675    2.0089    0.3107 N.ar      1 MOL1       -0.2643
      8 C           -3.3732    0.8115    0.3898 C.ar      1 MOL1        0.1096
      9 C           -1.8999    0.5437    0.6374 C.3       1 MOL1       -0.0333
     10 C           -0.9819    1.6523    0.0886 C.3       1 MOL1       -0.0806
     11 C            0.5135    1.2852    0.2090 C.3       1 MOL1       -0.0563
     12 C            0.9638    0.3795   -0.9566 C.3       1 MOL1       -0.0743
     13 C            2.4620    0.0145   -0.8311 C.3       1 MOL1       -0.0462
     14 N            3.3031    1.0524   -0.1892 N.3       1 MOL1       -0.2521
     15 C            4.6950    0.9798   -0.6853 C.3       1 MOL1       -0.0032
     16 C            5.5308   -0.2166   -0.2391 C.ar      1 MOL1       -0.0509
     17 C            5.2262   -1.4982   -0.6455 C.ar      1 MOL1       -0.0846
     18 C            6.0058   -2.5613   -0.2502 C.ar      1 MOL1       -0.0900
     19 C            7.1028   -2.3497    0.5523 C.ar      1 MOL1       -0.0906
     20 C            7.4155   -1.0738    0.9602 C.ar      1 MOL1       -0.0900
     21 C            6.6310   -0.0139    0.5664 C.ar      1 MOL1       -0.0846
     22 C            2.7478    2.3929   -0.4491 C.3       1 MOL1       -0.0462
     23 C            1.3612    2.5814    0.2117 C.3       1 MOL1       -0.0743
     24 C           -4.3826   -0.1816    0.2214 C.ar      1 MOL1       -0.0002
     25 C           -4.4326   -1.5695    0.2131 C.ar      1 MOL1       -0.0530
     26  H          -4.6771   -4.1740   -0.1709 H         1 MOL1        0.0465
     27  H          -6.4881   -4.0290   -0.8861 H         1 MOL1        0.0465
     28  H          -6.2004   -4.0474    1.0501 H         1 MOL1        0.0465
     29  H          -7.6776   -1.8598   -0.3251 H         1 MOL1        0.0908
     30  H          -7.5726    0.5218   -0.3078 H         1 MOL1        0.0924
     31  H          -1.7153    0.4409    1.8187 H         1 MOL1        0.0503
     32  H          -1.6370   -0.5033    0.1163 H         1 MOL1        0.0503
     33  H          -1.2020    2.6432    0.7298 H         1 MOL1        0.0465
     34  H          -1.2545    1.8712   -1.0592 H         1 MOL1        0.0465
     35  H           0.6917    0.6925    1.2378 H         1 MOL1        0.0488
     36  H           0.8055    0.9936   -1.9760 H         1 MOL1        0.0474
     37  H           0.3225   -0.6320   -1.0082 H         1 MOL1        0.0474
     38  H           2.5684   -0.9855   -0.1753 H         1 MOL1        0.0568
     39  H           2.8421   -0.2392   -1.9415 H         1 MOL1        0.0568
     40  H           5.2796    1.9593   -0.3094 H         1 MOL1        0.0598
     41  H           4.7009    1.0283   -1.8839 H         1 MOL1        0.0598
     42  H           4.4330   -1.6574   -1.2331 H         1 MOL1        0.0908
     43  H           5.7761   -3.4877   -0.5481 H         1 MOL1        0.0906
     44  H           7.6713   -3.1211    0.8379 H         1 MOL1        0.0906
     45  H           8.2134   -0.9164    1.5419 H         1 MOL1        0.0906
     46  H           6.8664    0.9109    0.8649 H         1 MOL1        0.0908
     47  H           3.4716    3.2498   -0.0220 H         1 MOL1        0.0568
     48  H           2.6478    2.5358   -1.6371 H         1 MOL1        0.0568
     49  H           1.5030    2.9406    1.3487 H         1 MOL1        0.0474
     50  H           0.7895    3.4523   -0.3853 H         1 MOL1        0.0474
     51  H          -3.6072   -2.1170    0.3506 H         1 MOL1        0.0912
@<TRIPOS>BOND
     1      1      2 1 
     2      2      3 ar
     3      3      4 ar
     4      4      5 ar
     5      5      6 ar
     6      6      7 ar
     7      7      8 ar
     8      8      9 1 
     9      8     24 ar
    10      9     10 1 
    11     10     11 1 
    12     11     12 1 
    13     12     13 1 
    14     13     14 1 
    15     14     15 1 
    16     14     22 1 
    17     15     16 1 
    18     16     17 ar
    19     17     18 ar
    20     18     19 ar
    21     19     20 ar
    22     20     21 ar
    23     21     16 ar
    24     22     23 1 
    25     23     11 1 
    26     24      5 ar
    27     24     25 ar
    28     25      2 ar
    29      1     26 1 
    30      1     27 1 
    31      1     28 1 
    32      3     29 1 
    33      4     30 1 
    34      9     31 1 
    35      9     32 1 
    36     10     33 1 
    37     10     34 1 
    38     11     35 1 
    39     12     36 1 
    40     12     37 1 
    41     13     38 1 
    42     13     39 1 
    43     15     40 1 
    44     15     41 1 
    45     17     42 1 
    46     18     43 1 
    47     19     44 1 
    48     20     45 1 
    49     21     46 1 
    50     22     47 1 
    51     22     48 1 
    52     23     49 1 
    53     23     50 1 
    54     25     51 1 
@<TRIPOS>SUBSTRUCTURE
     1 MOL1         1 MOLECULE          1 A
