# Molecule written by the XED library from Cresset
@<TRIPOS>MOLECULE
CHEMBL3122167
    46     49      1
SMALL
USER_CHARGES
@<TRIPOS>ATOM
      1 C           -7.5076    1.2741   -0.0150 C.3       1 MOL1       -0.1037
      2 C           -6.8483   -0.1147   -0.0085 C.3       1 MOL1        0.0659
      3 N           -5.3820   -0.0196    0.0216 N.am      1 MOL1       -0.3960
      4 C           -4.6336   -1.1454    0.0104 C.2       1 MOL1        0.3046
      5 O           -5.1278   -2.2723   -0.0065 O.2       1 MOL1       -0.4192
      6 C           -3.1493   -1.0705    0.0172 C.ar      1 MOL1       -0.0033
      7 C           -2.4021   -2.2694    0.0308 C.ar      1 MOL1       -0.0509
      8 C           -1.0546   -2.2550    0.0321 C.ar      1 MOL1       -0.0810
      9 C           -0.3442   -1.0362    0.0193 C.ar      1 MOL1        0.0598
     10 N            1.0117   -1.1287    0.0201 N.ar      1 MOL1       -0.3932
     11 C            1.6992    0.0317   -0.0032 C.ar      1 MOL1        0.0894
     12 C            1.0651    1.2889   -0.0419 C.ar      1 MOL1       -0.0796
     13 C            1.8502    2.6017   -0.1220 C.3       1 MOL1       -0.0420
     14 C            1.0558    3.8521   -0.5310 C.3       1 MOL1       -0.0728
     15 C           -0.2431    3.8548    0.2803 C.3       1 MOL1       -0.0459
     16 N           -0.9636    2.6069   -0.0153 N.pl3     1 MOL1       -0.2834
     17 C           -0.3110    1.3668   -0.0125 C.ar      1 MOL1        0.1150
     18 C           -1.0583    0.1693    0.0078 C.ar      1 MOL1       -0.0051
     19 C           -2.4645    0.1161    0.0074 C.ar      1 MOL1       -0.0276
     20 C            3.1422   -0.2255    0.0191 C.ar      1 MOL1       -0.0139
     21 C            3.5344   -1.5368   -0.2201 C.ar      1 MOL1       -0.0614
     22 C            4.8542   -1.9152   -0.2170 C.ar      1 MOL1       -0.0623
     23 C            5.8355   -0.9831    0.0286 C.ar      1 MOL1        0.0547
     24 Cl           7.5094   -1.4549    0.0323 Cl        1 MOL1       -0.1064
     25 C            5.4793    0.3231    0.2760 C.ar      1 MOL1       -0.0623
     26 C            4.1553    0.6913    0.2765 C.ar      1 MOL1       -0.0614
     27  H          -8.7009    1.1494   -0.0386 H         1 MOL1        0.0446
     28  H          -7.1874    1.8739    0.9738 H         1 MOL1        0.0446
     29  H          -7.1500    1.8830   -0.9852 H         1 MOL1        0.0446
     30  H          -7.1805   -0.7092   -0.9964 H         1 MOL1        0.0588
     31  H          -7.2209   -0.7200    0.9583 H         1 MOL1        0.0588
     32  H          -5.0032    0.7724    0.0478 H         1 MOL1        0.2040
     33  H          -2.8826   -3.1464    0.0389 H         1 MOL1        0.0910
     34  H          -0.5516   -3.1192    0.0414 H         1 MOL1        0.0919
     35  H           2.7098    2.4988   -0.9527 H         1 MOL1        0.0492
     36  H           2.3159    2.8321    0.9598 H         1 MOL1        0.0492
     37  H           1.6953    4.8410   -0.3003 H         1 MOL1        0.0474
     38  H           0.7900    3.7988   -1.7000 H         1 MOL1        0.0474
     39  H           0.0148    3.8986    1.4514 H         1 MOL1        0.0568
     40  H          -0.9039    4.8099   -0.0249 H         1 MOL1        0.0568
     41  H          -1.8368    2.6236    0.0757 H         1 MOL1        0.2758
     42  H          -2.9798    0.9684   -0.0039 H         1 MOL1        0.0914
     43  H           2.8350   -2.2290   -0.3992 H         1 MOL1        0.0910
     44  H           5.1018   -2.8680   -0.3926 H         1 MOL1        0.0939
     45  H           6.1863    1.0058    0.4600 H         1 MOL1        0.0939
     46  H           3.9305    1.6398    0.4742 H         1 MOL1        0.0910
@<TRIPOS>BOND
     1      1      2 1 
     2      2      3 1 
     3      3      4 am
     4      4      5 2 
     5      4      6 1 
     6      6      7 ar
     7      7      8 ar
     8      8      9 ar
     9      9     10 ar
    10     10     11 ar
    11     11     12 ar
    12     11     20 1 
    13     12     13 1 
    14     13     14 1 
    15     14     15 1 
    16     15     16 1 
    17     16     17 1 
    18     17     12 ar
    19     17     18 ar
    20     18      9 ar
    21     18     19 ar
    22     19      6 ar
    23     20     21 ar
    24     21     22 ar
    25     22     23 ar
    26     23     24 1 
    27     23     25 ar
    28     25     26 ar
    29     26     20 ar
    30      1     27 1 
    31      1     28 1 
    32      1     29 1 
    33      2     30 1 
    34      2     31 1 
    35      3     32 1 
    36      7     33 1 
    37      8     34 1 
    38     13     35 1 
    39     13     36 1 
    40     14     37 1 
    41     14     38 1 
    42     15     39 1 
    43     15     40 1 
    44     16     41 1 
    45     19     42 1 
    46     21     43 1 
    47     22     44 1 
    48     25     45 1 
    49     26     46 1 
@<TRIPOS>SUBSTRUCTURE
     1 MOL1         1 MOLECULE          1 A
