# Molecule written by the XED library from Cresset
@<TRIPOS>MOLECULE
CHEMBL420625
    50     53      1
SMALL
USER_CHARGES
@<TRIPOS>ATOM
      1 N            8.3752   -1.2460   -0.1198 N.pl3     1 MOL1       -0.4783
      2 C            7.0525   -0.8404    0.0274 C.ar      1 MOL1        0.0505
      3 C            6.0417   -1.8023    0.1598 C.ar      1 MOL1       -0.1217
      4 C            4.7312   -1.4404    0.3107 C.ar      1 MOL1       -0.0535
      5 C            4.4321   -0.0822    0.3270 C.ar      1 MOL1       -0.0220
      6 C            3.2575    0.7079    0.4547 C.ar      1 MOL1        0.0984
      7 C            1.8451    0.1893    0.6316 C.3       1 MOL1       -0.0334
      8 C            0.8690    0.9045   -0.3167 C.3       1 MOL1       -0.0806
      9 C           -0.5796    0.4088   -0.1440 C.3       1 MOL1       -0.0563
     10 C           -1.5009    1.3152   -0.9829 C.3       1 MOL1       -0.0743
     11 C           -2.9786    0.8687   -0.8851 C.3       1 MOL1       -0.0462
     12 N           -3.1599   -0.5698   -0.5813 N.3       1 MOL1       -0.2521
     13 C           -4.4897   -1.0366   -1.0271 C.3       1 MOL1       -0.0032
     14 C           -5.6960   -0.4586   -0.2962 C.ar      1 MOL1       -0.0509
     15 C           -6.1636    0.8020   -0.6011 C.ar      1 MOL1       -0.0846
     16 C           -7.2664    1.3151    0.0435 C.ar      1 MOL1       -0.0900
     17 C           -7.9149    0.5652    0.9975 C.ar      1 MOL1       -0.0906
     18 C           -7.4522   -0.6934    1.3060 C.ar      1 MOL1       -0.0900
     19 C           -6.3467   -1.2031    0.6638 C.ar      1 MOL1       -0.0846
     20 C           -2.1025   -1.3602   -1.2341 C.3       1 MOL1       -0.0462
     21 C           -0.7323   -1.0728   -0.5799 C.3       1 MOL1       -0.0743
     22 N            3.5273    1.9789    0.4027 N.ar      1 MOL1       -0.2832
     23 O            4.9288    2.1053    0.2295 O.3       1 MOL1       -0.0857
     24 C            5.4212    0.8592    0.1934 C.ar      1 MOL1        0.0978
     25 C            6.7449    0.5072    0.0436 C.ar      1 MOL1       -0.1034
     26  H           8.5394   -2.0949   -0.2869 H         1 MOL1        0.2750
     27  H           8.9737   -0.6511   -0.3729 H         1 MOL1        0.2750
     28  H           6.2835   -2.7726    0.1449 H         1 MOL1        0.0917
     29  H           4.0131   -2.1299    0.4059 H         1 MOL1        0.0910
     30  H           1.8287   -0.9891    0.4029 H         1 MOL1        0.0503
     31  H           1.5006    0.3777    1.7657 H         1 MOL1        0.0503
     32  H           0.9186    2.0756   -0.0615 H         1 MOL1        0.0465
     33  H           1.2258    0.7420   -1.4510 H         1 MOL1        0.0465
     34  H          -0.8989    0.5276    1.0072 H         1 MOL1        0.0488
     35  H          -1.4025    2.4611   -0.6380 H         1 MOL1        0.0474
     36  H          -1.1381    1.2256   -2.1239 H         1 MOL1        0.0474
     37  H          -3.4961    1.1647   -1.9277 H         1 MOL1        0.0568
     38  H          -3.5255    1.4861   -0.0130 H         1 MOL1        0.0568
     39  H          -4.6152   -0.8386   -2.2044 H         1 MOL1        0.0598
     40  H          -4.5419   -2.2254   -0.8634 H         1 MOL1        0.0598
     41  H          -5.6981    1.3483   -1.2976 H         1 MOL1        0.0908
     42  H          -7.5958    2.2316   -0.1841 H         1 MOL1        0.0906
     43  H          -8.7192    0.9333    1.4649 H         1 MOL1        0.0906
     44  H          -7.9204   -1.2424    1.9978 H         1 MOL1        0.0906
     45  H          -6.0192   -2.1206    0.8920 H         1 MOL1        0.0908
     46  H          -2.0555   -1.0605   -2.3961 H         1 MOL1        0.0568
     47  H          -2.3064   -2.5404   -1.1495 H         1 MOL1        0.0568
     48  H          -0.6101   -1.7660    0.3923 H         1 MOL1        0.0474
     49  H           0.1181   -1.3787   -1.3698 H         1 MOL1        0.0474
     50  H           7.4581    1.2019   -0.0508 H         1 MOL1        0.0935
@<TRIPOS>BOND
     1      1      2 1 
     2      2      3 ar
     3      3      4 ar
     4      4      5 ar
     5      5      6 ar
     6      6      7 1 
     7      6     22 ar
     8      7      8 1 
     9      8      9 1 
    10      9     10 1 
    11     10     11 1 
    12     11     12 1 
    13     12     13 1 
    14     12     20 1 
    15     13     14 1 
    16     14     15 ar
    17     15     16 ar
    18     16     17 ar
    19     17     18 ar
    20     18     19 ar
    21     19     14 ar
    22     20     21 1 
    23     21      9 1 
    24     22     23 ar
    25     23     24 ar
    26     24      5 ar
    27     24     25 ar
    28     25      2 ar
    29      1     26 1 
    30      1     27 1 
    31      3     28 1 
    32      4     29 1 
    33      7     30 1 
    34      7     31 1 
    35      8     32 1 
    36      8     33 1 
    37      9     34 1 
    38     10     35 1 
    39     10     36 1 
    40     11     37 1 
    41     11     38 1 
    42     13     39 1 
    43     13     40 1 
    44     15     41 1 
    45     16     42 1 
    46     17     43 1 
    47     18     44 1 
    48     19     45 1 
    49     20     46 1 
    50     20     47 1 
    51     21     48 1 
    52     21     49 1 
    53     25     50 1 
@<TRIPOS>SUBSTRUCTURE
     1 MOL1         1 MOLECULE          1 A
