# Molecule written by the XED library from Cresset
@<TRIPOS>MOLECULE
CHEMBL3818918
    54     58      1
SMALL
USER_CHARGES
@<TRIPOS>ATOM
      1 C           -8.6601   -1.7849   -0.0313 C.3       1 MOL1       -0.0471
      2 O           -7.2432   -1.5195    0.0183 O.3       1 MOL1       -0.1986
      3 C           -6.8287   -0.2546    0.0422 C.ar      1 MOL1        0.0946
      4 C           -7.6943    0.8322    0.0342 C.ar      1 MOL1       -0.0827
      5 C           -7.2158    2.1226    0.0574 C.ar      1 MOL1       -0.0710
      6 C           -5.8545    2.3744    0.0861 C.ar      1 MOL1       -0.1004
      7 C           -4.9864    1.3178    0.0941 C.ar      1 MOL1       -0.0278
      8 C           -3.4655    1.3407    0.1028 C.3       1 MOL1       -0.0040
      9 C           -3.0575   -0.1242    0.1553 C.2       1 MOL1       -0.0313
     10 C           -1.9234   -0.8140    0.2946 C.2       1 MOL1       -0.0523
     11 C           -0.4715   -0.3974    0.4166 C.3       1 MOL1       -0.0233
     12 C            0.3192   -1.0921   -0.7047 C.3       1 MOL1       -0.0701
     13 C            1.8362   -0.8692   -0.5115 C.3       1 MOL1       -0.0455
     14 N            2.2398    0.4699   -0.0144 N.3       1 MOL1       -0.2521
     15 C            3.4908    0.9212   -0.6669 C.3       1 MOL1       -0.0042
     16 C            4.8294    0.2491   -0.3564 C.ar      1 MOL1       -0.0635
     17 C            4.9805   -1.1273   -0.2713 C.ar      1 MOL1       -0.0973
     18 C            6.2087   -1.7116   -0.0215 C.ar      1 MOL1       -0.0806
     19 C            7.2799   -0.8672    0.1296 C.ar      1 MOL1        0.0687
     20 O            8.5470   -1.1826    0.3588 O.3       1 MOL1       -0.1768
     21 C            9.3386    0.0408    0.4235 C.3       1 MOL1        0.0590
     22 O            8.3216    1.0656    0.2154 O.3       1 MOL1       -0.1768
     23 C            7.1444    0.4802    0.0444 C.ar      1 MOL1        0.0695
     24 C            5.9304    1.0748   -0.1963 C.ar      1 MOL1       -0.0754
     25 C            1.1742    1.4596   -0.2671 C.3       1 MOL1       -0.0455
     26 C           -0.1847    1.1217    0.3924 C.3       1 MOL1       -0.0701
     27 C           -4.3108   -0.8562    0.1035 C.2       1 MOL1        0.2039
     28 O           -4.4401   -2.0721    0.0927 O.2       1 MOL1       -0.3904
     29 C           -5.4669    0.0255    0.0762 C.ar      1 MOL1        0.0127
     30  H          -8.8383   -2.9715   -0.0501 H         1 MOL1        0.0618
     31  H          -9.1948   -1.3208    0.9379 H         1 MOL1        0.0618
     32  H          -9.1338   -1.2997   -1.0219 H         1 MOL1        0.0618
     33  H          -8.6819    0.6776    0.0113 H         1 MOL1        0.0924
     34  H          -7.8593    2.8879    0.0510 H         1 MOL1        0.0906
     35  H          -5.5117    3.3137    0.0977 H         1 MOL1        0.0908
     36  H          -3.1234    1.8393   -0.9337 H         1 MOL1        0.0524
     37  H          -3.0402    1.9520    1.0440 H         1 MOL1        0.0524
     38  H          -2.0543   -1.7942    0.3233 H         1 MOL1        0.0887
     39  H          -0.0571   -0.8372    1.4540 H         1 MOL1        0.0514
     40  H          -0.0229   -0.6308   -1.7582 H         1 MOL1        0.0476
     41  H           0.0856   -2.2693   -0.7046 H         1 MOL1        0.0476
     42  H           2.1997   -1.6658    0.3092 H         1 MOL1        0.0568
     43  H           2.3521   -1.1395   -1.5612 H         1 MOL1        0.0568
     44  H           3.3346    0.9088   -1.8567 H         1 MOL1        0.0598
     45  H           3.6342    2.0742   -0.3633 H         1 MOL1        0.0598
     46  H           4.1853   -1.7159   -0.3996 H         1 MOL1        0.0908
     47  H           6.3127   -2.7042    0.0401 H         1 MOL1        0.0924
     48  H           9.8577    0.1621    1.4985 H         1 MOL1        0.0806
     49  H          10.1534    0.0668   -0.4571 H         1 MOL1        0.0806
     50  H           5.8491    2.0692   -0.2612 H         1 MOL1        0.0926
     51  H           1.0269    1.5296   -1.4565 H         1 MOL1        0.0568
     52  H           1.5023    2.5432    0.1317 H         1 MOL1        0.0568
     53  H          -0.2159    1.5463    1.5154 H         1 MOL1        0.0476
     54  H          -1.0131    1.6927   -0.2540 H         1 MOL1        0.0476
@<TRIPOS>BOND
     1      1      2 1 
     2      2      3 1 
     3      3      4 ar
     4      4      5 ar
     5      5      6 ar
     6      6      7 ar
     7      7      8 1 
     8      8      9 1 
     9      9     10 2 
    10      9     27 1 
    11     10     11 1 
    12     11     12 1 
    13     12     13 1 
    14     13     14 1 
    15     14     15 1 
    16     14     25 1 
    17     15     16 1 
    18     16     17 ar
    19     17     18 ar
    20     18     19 ar
    21     19     20 1 
    22     20     21 1 
    23     21     22 1 
    24     22     23 1 
    25     23     19 ar
    26     23     24 ar
    27     24     16 ar
    28     25     26 1 
    29     26     11 1 
    30     27     28 2 
    31     27     29 1 
    32     29      3 ar
    33     29      7 ar
    34      1     30 1 
    35      1     31 1 
    36      1     32 1 
    37      4     33 1 
    38      5     34 1 
    39      6     35 1 
    40      8     36 1 
    41      8     37 1 
    42     10     38 1 
    43     11     39 1 
    44     12     40 1 
    45     12     41 1 
    46     13     42 1 
    47     13     43 1 
    48     15     44 1 
    49     15     45 1 
    50     17     46 1 
    51     18     47 1 
    52     21     48 1 
    53     21     49 1 
    54     24     50 1 
    55     25     51 1 
    56     25     52 1 
    57     26     53 1 
    58     26     54 1 
@<TRIPOS>SUBSTRUCTURE
     1 MOL1         1 MOLECULE          1 A
