# Molecule written by the XED library from Cresset
@<TRIPOS>MOLECULE
CHEMBL1081810
    44     47      1
SMALL
USER_CHARGES
@<TRIPOS>ATOM
      1 C           -4.0934   -1.1238   -0.3606 C.3       1 MOL1        0.0929
      2 C           -2.6057   -1.3352   -0.0882 C.ar      1 MOL1       -0.0443
      3 C           -2.2101   -2.5360    0.5250 C.ar      1 MOL1       -0.0834
      4 C           -0.9067   -2.7950    0.7858 C.ar      1 MOL1       -0.0808
      5 C            0.0769   -1.8525    0.4433 C.ar      1 MOL1       -0.0213
      6 C            1.4375   -2.0912    0.7027 C.ar      1 MOL1       -0.0808
      7 C            2.3619   -1.1616    0.3634 C.ar      1 MOL1       -0.0834
      8 C            1.9822    0.0437   -0.2532 C.ar      1 MOL1       -0.0443
      9 C            2.9759    1.1192   -0.6805 C.3       1 MOL1        0.0929
     10 N            4.3946    0.8883   -0.4021 N.pl3     1 MOL1       -0.1162
     11 C            5.0616   -0.1167   -1.0310 C.ar      1 MOL1       -0.0203
     12 C            6.3925   -0.3154   -0.7989 C.ar      1 MOL1       -0.1015
     13 C            7.0643    0.5151    0.0764 C.ar      1 MOL1       -0.1668
     14 C            6.3796    1.5327    0.7113 C.ar      1 MOL1       -0.1015
     15 C            5.0475    1.7050    0.4662 C.ar      1 MOL1       -0.0203
     16 C            0.6735    0.2895   -0.5076 C.ar      1 MOL1       -0.0752
     17 C           -0.3096   -0.6555   -0.1682 C.ar      1 MOL1       -0.0202
     18 C           -1.6695   -0.4177   -0.4368 C.ar      1 MOL1       -0.0752
     19 N           -4.6962    0.1930   -0.1379 N.pl3     1 MOL1       -0.1162
     20 C           -4.1391    1.0991    0.7108 C.ar      1 MOL1       -0.0203
     21 C           -4.7282    2.3146    0.9113 C.ar      1 MOL1       -0.1015
     22 C           -5.9043    2.6192    0.2548 C.ar      1 MOL1       -0.1668
     23 C           -6.4727    1.6881   -0.5918 C.ar      1 MOL1       -0.1015
     24 C           -5.8603    0.4821   -0.7757 C.ar      1 MOL1       -0.0203
     25  H          -4.7171   -1.8971    0.3133 H         1 MOL1        0.0605
     26  H          -4.2693   -1.4286   -1.5088 H         1 MOL1        0.0605
     27  H          -2.9034   -3.2128    0.7716 H         1 MOL1        0.0908
     28  H          -0.6444   -3.6558    1.2220 H         1 MOL1        0.0910
     29  H           1.7225   -2.9461    1.1364 H         1 MOL1        0.0910
     30  H           3.3285   -1.3366    0.5503 H         1 MOL1        0.0908
     31  H           2.8512    1.2664   -1.8656 H         1 MOL1        0.0605
     32  H           2.6203    2.1447   -0.1657 H         1 MOL1        0.0605
     33  H           4.5739   -0.7157   -1.6662 H         1 MOL1        0.0980
     34  H           6.8786   -1.0574   -1.2607 H         1 MOL1        0.0913
     35  H           8.0398    0.3802    0.2499 H         1 MOL1        0.0906
     36  H           6.8569    2.1395    1.3472 H         1 MOL1        0.0913
     37  H           4.5521    2.4414    0.9266 H         1 MOL1        0.0980
     38  H           0.4060    1.1484   -0.9444 H         1 MOL1        0.0912
     39  H          -1.9482    0.4335   -0.8816 H         1 MOL1        0.0912
     40  H          -3.2883    0.8758    1.1866 H         1 MOL1        0.0980
     41  H          -4.3111    2.9802    1.5304 H         1 MOL1        0.0913
     42  H          -6.3429    3.5071    0.3933 H         1 MOL1        0.0906
     43  H          -7.3278    1.8960   -1.0670 H         1 MOL1        0.0913
     44  H          -6.2720   -0.1948   -1.3860 H         1 MOL1        0.0980
@<TRIPOS>BOND
     1      1      2 1 
     2      1     19 1 
     3      2      3 ar
     4      3      4 ar
     5      4      5 ar
     6      5      6 ar
     7      6      7 ar
     8      7      8 ar
     9      8      9 1 
    10      8     16 ar
    11      9     10 1 
    12     10     11 ar
    13     11     12 ar
    14     12     13 ar
    15     13     14 ar
    16     14     15 ar
    17     15     10 ar
    18     16     17 ar
    19     17      5 ar
    20     17     18 ar
    21     18      2 ar
    22     19     20 ar
    23     20     21 ar
    24     21     22 ar
    25     22     23 ar
    26     23     24 ar
    27     24     19 ar
    28      1     25 1 
    29      1     26 1 
    30      3     27 1 
    31      4     28 1 
    32      6     29 1 
    33      7     30 1 
    34      9     31 1 
    35      9     32 1 
    36     11     33 1 
    37     12     34 1 
    38     13     35 1 
    39     14     36 1 
    40     15     37 1 
    41     16     38 1 
    42     18     39 1 
    43     20     40 1 
    44     21     41 1 
    45     22     42 1 
    46     23     43 1 
    47     24     44 1 
@<TRIPOS>SUBSTRUCTURE
     1 MOL1         1 MOLECULE          1 A
