# Molecule written by the XED library from Cresset
@<TRIPOS>MOLECULE
CHEMBL2312574
    42     46      1
SMALL
USER_CHARGES
@<TRIPOS>ATOM
      1 C           -1.4347    0.2934   -0.5012 C.3       1 MOL1       -0.0122
      2 C           -2.4957   -0.8058   -0.7574 C.3       1 MOL1        0.0485
      3 N           -1.8124   -1.8869   -0.0379 N.pl3     1 MOL1       -0.2257
      4 N           -0.4976   -1.6609    0.2506 N.2       1 MOL1       -0.2365
      5 C           -0.1881   -0.4498   -0.0673 C.2       1 MOL1        0.0227
      6 C            1.2169    0.0159   -0.0039 C.ar      1 MOL1        0.0020
      7 C            2.2618   -0.9303    0.0124 C.ar      1 MOL1       -0.0099
      8 C            2.0344   -2.3293   -0.0115 C.ar      1 MOL1       -0.0807
      9 C            3.0503   -3.2172   -0.0051 C.ar      1 MOL1       -0.0893
     10 C            4.3896   -2.7801    0.0230 C.ar      1 MOL1       -0.0897
     11 C            4.6680   -1.4644    0.0428 C.ar      1 MOL1       -0.0811
     12 C            3.6151   -0.5188    0.0364 C.ar      1 MOL1       -0.0192
     13 C            3.9413    0.8207    0.0475 C.ar      1 MOL1       -0.0712
     14 C            2.9366    1.7659    0.0397 C.ar      1 MOL1       -0.0192
     15 C            3.3178    3.1292    0.0525 C.ar      1 MOL1       -0.0811
     16 C            2.3782    4.0910    0.0553 C.ar      1 MOL1       -0.0897
     17 C            1.0150    3.7395    0.0476 C.ar      1 MOL1       -0.0893
     18 C            0.6357    2.4452    0.0311 C.ar      1 MOL1       -0.0807
     19 C            1.5734    1.3813    0.0192 C.ar      1 MOL1       -0.0099
     20 C           -3.9362   -0.5694   -0.3223 C.ar      1 MOL1        0.0648
     21 C           -4.4170    0.7197   -0.2902 C.ar      1 MOL1       -0.0711
     22 C           -5.7171    0.9445    0.0748 C.ar      1 MOL1       -0.0359
     23 C           -6.5016   -0.1314    0.3920 C.ar      1 MOL1       -0.0767
     24 C           -5.9601   -1.3929    0.3368 C.ar      1 MOL1        0.0325
     25 N           -4.6840   -1.6480   -0.0146 N.ar      1 MOL1       -0.3395
     26 H           -2.4890   -1.0843   -1.9247 H         1 MOL1        0.0645
     27  H          -1.8219    0.9607    0.4185 H         1 MOL1        0.0518
     28  H          -1.2550    0.9524   -1.4883 H         1 MOL1        0.0518
     29  H          -2.2777   -2.3982    0.5076 H         1 MOL1        0.2789
     30  H           1.0961   -2.6710   -0.0342 H         1 MOL1        0.0910
     31  H           2.8507   -4.1969   -0.0215 H         1 MOL1        0.0906
     32  H           5.1335   -3.4483    0.0271 H         1 MOL1        0.0906
     33  H           5.6187   -1.1543    0.0609 H         1 MOL1        0.0910
     34  H           4.9003    1.1042    0.0612 H         1 MOL1        0.0914
     35  H           4.2864    3.3771    0.0600 H         1 MOL1        0.0910
     36  H           2.6470    5.0541    0.0646 H         1 MOL1        0.0906
     37  H           0.3194    4.4578    0.0548 H         1 MOL1        0.0906
     38  H          -0.3365    2.2437    0.0294 H         1 MOL1        0.0910
     39  H          -3.8215    1.4858   -0.5322 H         1 MOL1        0.0917
     40  H          -6.0858    1.8736    0.1066 H         1 MOL1        0.0906
     41  H          -7.4562   -0.0009    0.6597 H         1 MOL1        0.0915
     42  H          -6.5478   -2.1676    0.5703 H         1 MOL1        0.0995
@<TRIPOS>BOND
     1      1      2 1 
     2      2      3 1 
     3      2     20 1 
     4      3      4 1 
     5      4      5 2 
     6      5      1 1 
     7      5      6 1 
     8      6      7 ar
     9      7      8 ar
    10      8      9 ar
    11      9     10 ar
    12     10     11 ar
    13     11     12 ar
    14     12      7 ar
    15     12     13 ar
    16     13     14 ar
    17     14     15 ar
    18     15     16 ar
    19     16     17 ar
    20     17     18 ar
    21     18     19 ar
    22     19      6 ar
    23     19     14 ar
    24     20     21 ar
    25     21     22 ar
    26     22     23 ar
    27     23     24 ar
    28     24     25 ar
    29     25     20 ar
    30      1     27 1 
    31      1     28 1 
    32      2     26 1 
    33      3     29 1 
    34      8     30 1 
    35      9     31 1 
    36     10     32 1 
    37     11     33 1 
    38     13     34 1 
    39     15     35 1 
    40     16     36 1 
    41     17     37 1 
    42     18     38 1 
    43     21     39 1 
    44     22     40 1 
    45     23     41 1 
    46     24     42 1 
@<TRIPOS>SUBSTRUCTURE
     1 MOL1         1 MOLECULE          1 A
