# Molecule written by the XED library from Cresset
@<TRIPOS>MOLECULE
CHEMBL3818230
    48     51      1
SMALL
USER_CHARGES
@<TRIPOS>ATOM
      1 O           -8.2353    0.0027    0.1735 O.3       1 MOL1       -0.3846
      2 C           -6.9114    0.3141    0.1195 C.ar      1 MOL1        0.0547
      3 C           -6.5155    1.6412    0.0391 C.ar      1 MOL1       -0.0698
      4 C           -5.1782    1.9756   -0.0209 C.ar      1 MOL1       -0.0806
      5 C           -4.2380    0.9758    0.0031 C.ar      1 MOL1       -0.0447
      6 C           -2.7222    1.0831   -0.0796 C.3       1 MOL1       -0.0045
      7 C           -2.2180   -0.3461    0.0696 C.2       1 MOL1       -0.0313
      8 C           -1.0394   -0.9510    0.2398 C.2       1 MOL1       -0.0507
      9 C            0.3810   -0.4252    0.2740 C.3       1 MOL1       -0.0232
     10 C            1.2080   -1.2222   -0.7510 C.3       1 MOL1       -0.0701
     11 C            2.7062   -0.8376   -0.6839 C.3       1 MOL1       -0.0455
     12 N            2.9767    0.5517   -0.2418 N.3       1 MOL1       -0.2520
     13 C            4.2592    1.0392   -0.7959 C.3       1 MOL1       -0.0032
     14 C            5.5366    0.4126   -0.2471 C.ar      1 MOL1       -0.0509
     15 C            5.8630   -0.8986   -0.5173 C.ar      1 MOL1       -0.0846
     16 C            7.0272   -1.4444   -0.0259 C.ar      1 MOL1       -0.0900
     17 C            7.8798   -0.6781    0.7346 C.ar      1 MOL1       -0.0906
     18 C            7.5636    0.6337    1.0025 C.ar      1 MOL1       -0.0900
     19 C            6.3957    1.1748    0.5145 C.ar      1 MOL1       -0.0846
     20 C            1.8829    1.4450   -0.6635 C.3       1 MOL1       -0.0455
     21 C            0.5329    1.0906    0.0048 C.3       1 MOL1       -0.0701
     22 C           -3.4229   -1.1533    0.1274 C.2       1 MOL1        0.2049
     23 O           -3.4757   -2.3710    0.2145 O.2       1 MOL1       -0.3843
     24 C           -4.6338   -0.3390    0.0938 C.ar      1 MOL1        0.0073
     25 C           -5.9694   -0.6948    0.1480 C.ar      1 MOL1       -0.0571
     26  H          -8.8117    0.8263    0.1193 H         1 MOL1        0.3295
     27  H          -7.2065    2.3637    0.0221 H         1 MOL1        0.0924
     28  H          -4.8986    2.9331   -0.0841 H         1 MOL1        0.0908
     29  H          -2.4806    1.5031   -1.1773 H         1 MOL1        0.0524
     30  H          -2.2725    1.8028    0.7694 H         1 MOL1        0.0524
     31  H          -1.1039   -1.9312    0.3594 H         1 MOL1        0.0887
     32  H           0.8406   -0.6739    1.3542 H         1 MOL1        0.0514
     33  H           0.7765   -0.9560   -1.8387 H         1 MOL1        0.0476
     34  H           1.0846   -2.4008   -0.5632 H         1 MOL1        0.0476
     35  H           3.2613   -1.5690    0.0902 H         1 MOL1        0.0568
     36  H           3.1551   -1.0505   -1.7772 H         1 MOL1        0.0568
     37  H           4.3406    2.2160   -0.5721 H         1 MOL1        0.0598
     38  H           4.2539    0.9222   -1.9900 H         1 MOL1        0.0598
     39  H           5.2477   -1.4584   -1.0731 H         1 MOL1        0.0908
     40  H           7.2543   -2.3981   -0.2225 H         1 MOL1        0.0906
     41  H           8.7278   -1.0728    1.0901 H         1 MOL1        0.0906
     42  H           8.1829    1.1947    1.5516 H         1 MOL1        0.0906
     43  H           6.1727    2.1293    0.7121 H         1 MOL1        0.0908
     44  H           2.1317    2.5876   -0.3929 H         1 MOL1        0.0568
     45  H           1.7760    1.3556   -1.8562 H         1 MOL1        0.0568
     46  H           0.4121    1.6843    1.0420 H         1 MOL1        0.0476
     47  H          -0.3170    1.4597   -0.7513 H         1 MOL1        0.0476
     48  H          -6.2443   -1.6544    0.2097 H         1 MOL1        0.0928
@<TRIPOS>BOND
     1      1      2 1 
     2      2      3 ar
     3      3      4 ar
     4      4      5 ar
     5      5      6 1 
     6      6      7 1 
     7      7      8 2 
     8      7     22 1 
     9      8      9 1 
    10      9     10 1 
    11     10     11 1 
    12     11     12 1 
    13     12     13 1 
    14     12     20 1 
    15     13     14 1 
    16     14     15 ar
    17     15     16 ar
    18     16     17 ar
    19     17     18 ar
    20     18     19 ar
    21     19     14 ar
    22     20     21 1 
    23     21      9 1 
    24     22     23 2 
    25     22     24 1 
    26     24      5 ar
    27     24     25 ar
    28     25      2 ar
    29      1     26 1 
    30      3     27 1 
    31      4     28 1 
    32      6     29 1 
    33      6     30 1 
    34      8     31 1 
    35      9     32 1 
    36     10     33 1 
    37     10     34 1 
    38     11     35 1 
    39     11     36 1 
    40     13     37 1 
    41     13     38 1 
    42     15     39 1 
    43     16     40 1 
    44     17     41 1 
    45     18     42 1 
    46     19     43 1 
    47     20     44 1 
    48     20     45 1 
    49     21     46 1 
    50     21     47 1 
    51     25     48 1 
@<TRIPOS>SUBSTRUCTURE
     1 MOL1         1 MOLECULE          1 A
