# Molecule written by the XED library from Cresset
@<TRIPOS>MOLECULE
CHEMBL168938
    55     58      1
SMALL
USER_CHARGES
@<TRIPOS>ATOM
      1 C            6.3614   -3.5904   -0.0042 C.3       1 MOL1       -0.0471
      2 O            6.7017   -2.1955   -0.1349 O.3       1 MOL1       -0.1992
      3 C            5.7220   -1.2857   -0.1205 C.ar      1 MOL1        0.0834
      4 C            4.3852   -1.6457    0.0113 C.ar      1 MOL1       -0.0741
      5 C            3.4162   -0.6777    0.0291 C.ar      1 MOL1       -0.0408
      6 C            1.9081   -0.8325    0.1739 C.3       1 MOL1       -0.0043
      7 C            1.3827    0.5953    0.2114 C.2       1 MOL1       -0.0313
      8 C            0.2222    1.1902    0.4910 C.2       1 MOL1       -0.0523
      9 C           -1.1416    0.6291    0.8347 C.3       1 MOL1       -0.0233
     10 C           -2.2304    1.3565    0.0247 C.3       1 MOL1       -0.0701
     11 C           -3.6170    0.9200    0.5434 C.3       1 MOL1       -0.0455
     12 N           -3.8287   -0.5377    0.4182 N.3       1 MOL1       -0.2520
     13 C           -5.1323   -0.9220    0.9986 C.3       1 MOL1       -0.0032
     14 C           -6.3783   -0.4171    0.2832 C.ar      1 MOL1       -0.0509
     15 C           -6.9728    0.7626    0.6755 C.ar      1 MOL1       -0.0846
     16 C           -8.1092    1.2133    0.0435 C.ar      1 MOL1       -0.0900
     17 C           -8.6593    0.4824   -0.9843 C.ar      1 MOL1       -0.0906
     18 C           -8.0706   -0.6970   -1.3794 C.ar      1 MOL1       -0.0900
     19 C           -6.9325   -1.1444   -0.7476 C.ar      1 MOL1       -0.0846
     20 C           -2.7498   -1.2738    1.1074 C.3       1 MOL1       -0.0455
     21 C           -1.3373   -0.8844    0.6246 C.3       1 MOL1       -0.0701
     22 C            2.5485    1.4275   -0.0222 C.2       1 MOL1        0.1999
     23 O            2.5654    2.6446   -0.1376 O.2       1 MOL1       -0.3896
     24 C            3.7708    0.6451   -0.0901 C.ar      1 MOL1       -0.0047
     25 C            5.0945    1.0331   -0.2253 C.ar      1 MOL1       -0.0542
     26 C            6.0753    0.0622   -0.2368 C.ar      1 MOL1        0.0723
     27 O            7.3804    0.3701   -0.3527 O.3       1 MOL1       -0.2025
     28 C            7.7667    1.7577   -0.4212 C.3       1 MOL1       -0.0471
     29  H           5.6470   -3.9176   -0.9116 H         1 MOL1        0.0618
     30  H           5.7993   -3.7739    1.0398 H         1 MOL1        0.0618
     31  H           7.3652   -4.2471   -0.0337 H         1 MOL1        0.0618
     32  H           4.1271   -2.6075    0.0967 H         1 MOL1        0.0926
     33  H           1.6668   -1.4267    1.1871 H         1 MOL1        0.0524
     34  H           1.4733   -1.4138   -0.7818 H         1 MOL1        0.0524
     35  H           0.2574    2.1786    0.4679 H         1 MOL1        0.0887
     36  H          -1.3400    0.8829    1.9907 H         1 MOL1        0.0514
     37  H          -2.1166    2.5425    0.1628 H         1 MOL1        0.0476
     38  H          -2.1246    1.0754   -1.1371 H         1 MOL1        0.0476
     39  H          -4.4492    1.4985   -0.0983 H         1 MOL1        0.0568
     40  H          -3.7143    1.2514    1.6926 H         1 MOL1        0.0568
     41  H          -5.2098   -2.1206    1.0000 H         1 MOL1        0.0598
     42  H          -5.1775   -0.5688    2.1452 H         1 MOL1        0.0598
     43  H          -6.5768    1.2938    1.4245 H         1 MOL1        0.0908
     44  H          -8.5358    2.0705    0.3320 H         1 MOL1        0.0906
     45  H          -9.4862    0.8076   -1.4430 H         1 MOL1        0.0906
     46  H          -8.4707   -1.2299   -2.1250 H         1 MOL1        0.0906
     47  H          -6.5083   -2.0029   -1.0352 H         1 MOL1        0.0908
     48  H          -2.8860   -2.4527    0.9294 H         1 MOL1        0.0568
     49  H          -2.8095   -1.0494    2.2846 H         1 MOL1        0.0568
     50  H          -0.5497   -1.5044    1.2801 H         1 MOL1        0.0476
     51  H          -1.2099   -1.1549   -0.5376 H         1 MOL1        0.0476
     52  H           5.3311    2.0011   -0.3073 H         1 MOL1        0.0928
     53  H           8.9625    1.8308   -0.4920 H         1 MOL1        0.0618
     54  H           7.3929    2.3344    0.5629 H         1 MOL1        0.0618
     55  H           7.2785    2.2641   -1.3933 H         1 MOL1        0.0618
@<TRIPOS>BOND
     1      1      2 1 
     2      2      3 1 
     3      3      4 ar
     4      4      5 ar
     5      5      6 1 
     6      6      7 1 
     7      7      8 2 
     8      7     22 1 
     9      8      9 1 
    10      9     10 1 
    11     10     11 1 
    12     11     12 1 
    13     12     13 1 
    14     12     20 1 
    15     13     14 1 
    16     14     15 ar
    17     15     16 ar
    18     16     17 ar
    19     17     18 ar
    20     18     19 ar
    21     19     14 ar
    22     20     21 1 
    23     21      9 1 
    24     22     23 2 
    25     22     24 1 
    26     24      5 ar
    27     24     25 ar
    28     25     26 ar
    29     26      3 ar
    30     26     27 1 
    31     27     28 1 
    32      1     29 1 
    33      1     30 1 
    34      1     31 1 
    35      4     32 1 
    36      6     33 1 
    37      6     34 1 
    38      8     35 1 
    39      9     36 1 
    40     10     37 1 
    41     10     38 1 
    42     11     39 1 
    43     11     40 1 
    44     13     41 1 
    45     13     42 1 
    46     15     43 1 
    47     16     44 1 
    48     17     45 1 
    49     18     46 1 
    50     19     47 1 
    51     20     48 1 
    52     20     49 1 
    53     21     50 1 
    54     21     51 1 
    55     25     52 1 
    56     28     53 1 
    57     28     54 1 
    58     28     55 1 
@<TRIPOS>SUBSTRUCTURE
     1 MOL1         1 MOLECULE          1 A
