# Molecule written by the XED library from Cresset
@<TRIPOS>MOLECULE
CHEMBL3819646
    48     51      1
SMALL
USER_CHARGES
@<TRIPOS>ATOM
      1 O           -6.5441   -3.2613    0.2335 O.3       1 MOL1       -0.3814
      2 C           -5.8516   -2.1067    0.0785 C.ar      1 MOL1        0.0670
      3 C           -6.5310   -0.9053   -0.0828 C.ar      1 MOL1       -0.0819
      4 C           -5.8416    0.2691   -0.2467 C.ar      1 MOL1       -0.0567
      5 C           -4.4557    0.2174   -0.2474 C.ar      1 MOL1       -0.0065
      6 C           -3.4621    1.2659   -0.4039 C.2       1 MOL1        0.1997
      7 O           -3.7896    2.4333   -0.5622 O.2       1 MOL1       -0.3897
      8 C           -2.1101    0.7439   -0.3326 C.2       1 MOL1       -0.0313
      9 C           -1.0837    1.5863   -0.4647 C.2       1 MOL1       -0.0522
     10 C            0.4094    1.3512   -0.3502 C.3       1 MOL1       -0.0233
     11 C            0.7668    0.0423    0.3827 C.3       1 MOL1       -0.0701
     12 C            2.2934   -0.1227    0.5789 C.3       1 MOL1       -0.0455
     13 N            3.0713    1.1215    0.3897 N.3       1 MOL1       -0.2520
     14 C            4.4357    0.9739    0.9369 C.3       1 MOL1       -0.0032
     15 C            5.2905   -0.1329    0.3307 C.ar      1 MOL1       -0.0509
     16 C            5.2919   -1.3879    0.9001 C.ar      1 MOL1       -0.0846
     17 C            6.0627   -2.3943    0.3652 C.ar      1 MOL1       -0.0900
     18 C            6.8399   -2.1491   -0.7430 C.ar      1 MOL1       -0.0906
     19 C            6.8456   -0.8973   -1.3145 C.ar      1 MOL1       -0.0900
     20 C            6.0720    0.1078   -0.7785 C.ar      1 MOL1       -0.0846
     21 C            2.3905    2.2505    1.0476 C.3       1 MOL1       -0.0455
     22 C            1.0113    2.5559    0.4121 C.3       1 MOL1       -0.0701
     23 C           -2.2709   -0.7523   -0.1127 C.3       1 MOL1       -0.0039
     24 C           -3.7756   -0.9699   -0.0798 C.ar      1 MOL1       -0.0262
     25 C           -4.4653   -2.1396    0.0836 C.ar      1 MOL1       -0.0774
     26  H          -7.5375   -3.1025    0.2169 H         1 MOL1        0.3295
     27  H          -7.5310   -0.8973   -0.0802 H         1 MOL1        0.0924
     28  H          -6.3248    1.1370   -0.3636 H         1 MOL1        0.0910
     29  H          -1.3414    2.5273   -0.6317 H         1 MOL1        0.0887
     30  H           0.8893    1.3419   -1.4512 H         1 MOL1        0.0514
     31  H           0.2427    0.0987    1.4613 H         1 MOL1        0.0476
     32  H           0.3466   -0.9010   -0.2254 H         1 MOL1        0.0476
     33  H           2.4699   -0.5619    1.6831 H         1 MOL1        0.0568
     34  H           2.7133   -0.9257   -0.2080 H         1 MOL1        0.0568
     35  H           5.0214    2.0068    0.7599 H         1 MOL1        0.0598
     36  H           4.3625    0.8090    2.1236 H         1 MOL1        0.0598
     37  H           4.7278   -1.5683    1.7061 H         1 MOL1        0.0908
     38  H           6.0591   -3.3032    0.7825 H         1 MOL1        0.0906
     39  H           7.4008   -2.8800   -1.1319 H         1 MOL1        0.0906
     40  H           7.4126   -0.7176   -2.1184 H         1 MOL1        0.0906
     41  H           6.0795    1.0167   -1.1955 H         1 MOL1        0.0908
     42  H           3.0588    3.2458    0.9839 H         1 MOL1        0.0568
     43  H           2.2417    1.9743    2.2070 H         1 MOL1        0.0568
     44  H           1.1150    3.4746   -0.3554 H         1 MOL1        0.0476
     45  H           0.2473    2.8840    1.2787 H         1 MOL1        0.0476
     46  H          -1.8127   -1.3651   -1.0371 H         1 MOL1        0.0524
     47  H          -1.7817   -1.1008    0.9257 H         1 MOL1        0.0524
     48  H          -3.9779   -3.0046    0.2035 H         1 MOL1        0.0926
@<TRIPOS>BOND
     1      1      2 1 
     2      2      3 ar
     3      3      4 ar
     4      4      5 ar
     5      5      6 1 
     6      6      7 2 
     7      6      8 1 
     8      8      9 2 
     9      8     23 1 
    10      9     10 1 
    11     10     11 1 
    12     11     12 1 
    13     12     13 1 
    14     13     14 1 
    15     13     21 1 
    16     14     15 1 
    17     15     16 ar
    18     16     17 ar
    19     17     18 ar
    20     18     19 ar
    21     19     20 ar
    22     20     15 ar
    23     21     22 1 
    24     22     10 1 
    25     23     24 1 
    26     24      5 ar
    27     24     25 ar
    28     25      2 ar
    29      1     26 1 
    30      3     27 1 
    31      4     28 1 
    32      9     29 1 
    33     10     30 1 
    34     11     31 1 
    35     11     32 1 
    36     12     33 1 
    37     12     34 1 
    38     14     35 1 
    39     14     36 1 
    40     16     37 1 
    41     17     38 1 
    42     18     39 1 
    43     19     40 1 
    44     20     41 1 
    45     21     42 1 
    46     21     43 1 
    47     22     44 1 
    48     22     45 1 
    49     23     46 1 
    50     23     47 1 
    51     25     48 1 
@<TRIPOS>SUBSTRUCTURE
     1 MOL1         1 MOLECULE          1 A
