# Molecule written by the XED library from Cresset
@<TRIPOS>MOLECULE
CHEMBL3818918
    54     58      1
SMALL
USER_CHARGES
@<TRIPOS>ATOM
      1 C           -8.5384   -1.7854    0.5513 C.3       1 MOL1       -0.0471
      2 O           -7.1278   -1.5113    0.4257 O.3       1 MOL1       -0.1986
      3 C           -6.7241   -0.2446    0.3552 C.ar      1 MOL1        0.0946
      4 C           -7.5908    0.8384    0.4355 C.ar      1 MOL1       -0.0827
      5 C           -7.1244    2.1298    0.3471 C.ar      1 MOL1       -0.0710
      6 C           -5.7748    2.3871    0.1718 C.ar      1 MOL1       -0.1004
      7 C           -4.9054    1.3352    0.0876 C.ar      1 MOL1       -0.0278
      8 C           -3.3970    1.3685   -0.1145 C.3       1 MOL1       -0.0040
      9 C           -2.9993   -0.0961   -0.2070 C.2       1 MOL1       -0.0313
     10 C           -1.9006   -0.7749   -0.5400 C.2       1 MOL1       -0.0523
     11 C           -0.5072   -0.3157   -0.9145 C.3       1 MOL1       -0.0233
     12 C            0.5506   -1.1611   -0.1812 C.3       1 MOL1       -0.0701
     13 C            1.9396   -0.8416   -0.7733 C.3       1 MOL1       -0.0455
     14 N            2.3050    0.5859   -0.6464 N.3       1 MOL1       -0.2521
     15 C            3.5811    0.8559   -1.3435 C.3       1 MOL1       -0.0042
     16 C            4.8604    0.2349   -0.7949 C.ar      1 MOL1       -0.0635
     17 C            5.1892   -1.0773   -1.0988 C.ar      1 MOL1       -0.0973
     18 C            6.3621   -1.6512   -0.6457 C.ar      1 MOL1       -0.0806
     19 C            7.1885   -0.8578    0.1102 C.ar      1 MOL1        0.0687
     20 O            8.3621   -1.1720    0.6397 O.3       1 MOL1       -0.1768
     21 C            8.8939   -0.0101    1.3427 C.3       1 MOL1        0.0590
     22 O            7.8369    0.9739    1.1372 O.3       1 MOL1       -0.1768
     23 C            6.8720    0.4283    0.4100 C.ar      1 MOL1        0.0695
     24 C            5.7070    1.0119   -0.0238 C.ar      1 MOL1       -0.0754
     25 C            1.2454    1.4422   -1.2197 C.3       1 MOL1       -0.0455
     26 C           -0.1641    1.1636   -0.6568 C.3       1 MOL1       -0.0701
     27 C           -4.2225   -0.8350    0.0465 C.2       1 MOL1        0.2039
     28 O           -4.3342   -2.0498    0.1321 O.2       1 MOL1       -0.3904
     29 C           -5.3744    0.0416    0.1822 C.ar      1 MOL1        0.0127
     30  H          -8.7069   -2.9726    0.5936 H         1 MOL1        0.0618
     31  H          -8.9575   -1.2907    1.5611 H         1 MOL1        0.0618
     32  H          -9.1296   -1.3368   -0.3923 H         1 MOL1        0.0618
     33  H          -8.5707    0.6810    0.5576 H         1 MOL1        0.0924
     34  H          -7.7695    2.8914    0.4090 H         1 MOL1        0.0906
     35  H          -5.4417    3.3276    0.1057 H         1 MOL1        0.0908
     36  H          -3.1478    1.9624   -1.1258 H         1 MOL1        0.0524
     37  H          -2.8736    1.8873    0.8325 H         1 MOL1        0.0524
     38  H          -2.0154   -1.7570   -0.5421 H         1 MOL1        0.0887
     39  H          -0.3806   -0.5396   -2.0862 H         1 MOL1        0.0514
     40  H           0.5371   -0.8959    0.9893 H         1 MOL1        0.0476
     41  H           0.3260   -2.3303   -0.3312 H         1 MOL1        0.0476
     42  H           2.7464   -1.5046   -0.1834 H         1 MOL1        0.0568
     43  H           1.9439   -1.1665   -1.9285 H         1 MOL1        0.0568
     44  H           3.4835    0.5276   -2.4941 H         1 MOL1        0.0598
     45  H           3.7591    2.0434   -1.3419 H         1 MOL1        0.0598
     46  H           4.5656   -1.6204   -1.6613 H         1 MOL1        0.0908
     47  H           6.6006   -2.5975   -0.8637 H         1 MOL1        0.0924
     48  H           9.9194    0.3556    0.8377 H         1 MOL1        0.0806
     49  H           9.0408   -0.2448    2.5102 H         1 MOL1        0.0806
     50  H           5.4856    1.9614    0.1987 H         1 MOL1        0.0926
     51  H           1.1907    1.2738   -2.4067 H         1 MOL1        0.0568
     52  H           1.5032    2.5941   -1.0039 H         1 MOL1        0.0568
     53  H          -0.9298    1.8808   -1.2349 H         1 MOL1        0.0476
     54  H          -0.1936    1.3920    0.5209 H         1 MOL1        0.0476
@<TRIPOS>BOND
     1      1      2 1 
     2      2      3 1 
     3      3      4 ar
     4      4      5 ar
     5      5      6 ar
     6      6      7 ar
     7      7      8 1 
     8      8      9 1 
     9      9     10 2 
    10      9     27 1 
    11     10     11 1 
    12     11     12 1 
    13     12     13 1 
    14     13     14 1 
    15     14     15 1 
    16     14     25 1 
    17     15     16 1 
    18     16     17 ar
    19     17     18 ar
    20     18     19 ar
    21     19     20 1 
    22     20     21 1 
    23     21     22 1 
    24     22     23 1 
    25     23     19 ar
    26     23     24 ar
    27     24     16 ar
    28     25     26 1 
    29     26     11 1 
    30     27     28 2 
    31     27     29 1 
    32     29      3 ar
    33     29      7 ar
    34      1     30 1 
    35      1     31 1 
    36      1     32 1 
    37      4     33 1 
    38      5     34 1 
    39      6     35 1 
    40      8     36 1 
    41      8     37 1 
    42     10     38 1 
    43     11     39 1 
    44     12     40 1 
    45     12     41 1 
    46     13     42 1 
    47     13     43 1 
    48     15     44 1 
    49     15     45 1 
    50     17     46 1 
    51     18     47 1 
    52     21     48 1 
    53     21     49 1 
    54     24     50 1 
    55     25     51 1 
    56     25     52 1 
    57     26     53 1 
    58     26     54 1 
@<TRIPOS>SUBSTRUCTURE
     1 MOL1         1 MOLECULE          1 A
