# Molecule written by the XED library from Cresset
@<TRIPOS>MOLECULE
CHEMBL465027
    52     55      1
SMALL
USER_CHARGES
@<TRIPOS>ATOM
      1 C            4.1709   -4.2029   -0.2236 C.3       1 MOL1       -0.0471
      2 O            4.9586   -3.0015   -0.0993 O.3       1 MOL1       -0.1993
      3 C            4.3359   -1.8190   -0.0499 C.ar      1 MOL1        0.0824
      4 C            2.9521   -1.7102   -0.1322 C.ar      1 MOL1       -0.0742
      5 C            2.3625   -0.4747   -0.0728 C.ar      1 MOL1       -0.0420
      6 C            0.8881   -0.1081   -0.1560 C.3       1 MOL1       -0.0041
      7 C            0.8515    1.4069    0.0038 C.2       1 MOL1       -0.0323
      8 C           -0.0887    2.3723    0.0780 C.2       1 MOL1       -0.0234
      9 C           -1.5459    2.1460   -0.0537 C.ar      1 MOL1       -0.0255
     10 C           -2.3811    3.2461    0.0615 C.ar      1 MOL1       -0.0708
     11 C           -3.7390    3.1121   -0.0867 C.ar      1 MOL1       -0.0886
     12 C           -4.2843    1.8764   -0.3533 C.ar      1 MOL1       -0.0739
     13 C           -3.4762    0.7634   -0.4585 C.ar      1 MOL1       -0.0490
     14 C           -4.0564   -0.6132   -0.7720 C.3       1 MOL1       -0.0031
     15 N           -4.9841   -1.1865    0.2251 N.3       1 MOL1       -0.2522
     16 C           -5.1324   -2.6285    0.0134 C.3       1 MOL1       -0.0465
     17 C           -6.3922   -2.9273    0.8360 C.3       1 MOL1       -0.0748
     18 C           -7.2716   -1.6792    0.6478 C.3       1 MOL1       -0.0748
     19 C           -6.3213   -0.5744    0.1423 C.3       1 MOL1       -0.0465
     20 C           -2.1158    0.9062   -0.3066 C.ar      1 MOL1       -0.0652
     21 C            2.2376    1.7926    0.1235 C.2       1 MOL1        0.1921
     22 O            2.6648    2.9328    0.2510 O.2       1 MOL1       -0.3952
     23 C            3.1372    0.6501    0.0752 C.ar      1 MOL1       -0.0045
     24 C            4.5188    0.5711    0.1507 C.ar      1 MOL1       -0.0552
     25 C            5.1209   -0.6695    0.0848 C.ar      1 MOL1        0.0721
     26 O            6.4568   -0.8176    0.1446 O.3       1 MOL1       -0.2025
     27 C            7.2839    0.3578    0.2577 C.3       1 MOL1       -0.0471
     28  H           3.5404   -4.1701   -1.2444 H         1 MOL1        0.0618
     29  H           3.4249   -4.2950    0.7122 H         1 MOL1        0.0618
     30  H           4.9062   -5.1513   -0.2414 H         1 MOL1        0.0618
     31  H           2.3862   -2.5279   -0.2359 H         1 MOL1        0.0926
     32  H           0.2716   -0.6492    0.7199 H         1 MOL1        0.0524
     33  H           0.4682   -0.4265   -1.2340 H         1 MOL1        0.0524
     34  H           0.2213    3.3024    0.2186 H         1 MOL1        0.0912
     35  H          -1.9896    4.1473    0.2474 H         1 MOL1        0.0910
     36  H          -4.3322    3.9134   -0.0074 H         1 MOL1        0.0906
     37  H          -5.2720    1.7877   -0.4737 H         1 MOL1        0.0908
     38  H          -4.5679   -0.5868   -1.8573 H         1 MOL1        0.0598
     39  H          -3.1323   -1.3768   -0.8554 H         1 MOL1        0.0598
     40  H          -4.1770   -3.2449    0.3976 H         1 MOL1        0.0568
     41  H          -5.3570   -2.8628   -1.1424 H         1 MOL1        0.0568
     42  H          -6.0821   -3.0382    1.9902 H         1 MOL1        0.0471
     43  H          -6.9395   -3.9256    0.4556 H         1 MOL1        0.0471
     44  H          -7.8002   -1.3695    1.6801 H         1 MOL1        0.0471
     45  H          -8.1143   -1.9051   -0.1774 H         1 MOL1        0.0471
     46  H          -6.3855    0.4042    0.8352 H         1 MOL1        0.0568
     47  H          -6.6273   -0.2953   -0.9855 H         1 MOL1        0.0568
     48  H          -1.5297    0.1038   -0.3906 H         1 MOL1        0.0912
     49  H           5.0668    1.4013    0.2494 H         1 MOL1        0.0928
     50  H           8.4376    0.0281    0.2824 H         1 MOL1        0.0618
     51  H           7.0144    0.9410    1.2711 H         1 MOL1        0.0618
     52  H           7.0950    1.0769   -0.6844 H         1 MOL1        0.0618
@<TRIPOS>BOND
     1      1      2 1 
     2      2      3 1 
     3      3      4 ar
     4      4      5 ar
     5      5      6 1 
     6      6      7 1 
     7      7      8 2 
     8      7     21 1 
     9      8      9 1 
    10      9     10 ar
    11     10     11 ar
    12     11     12 ar
    13     12     13 ar
    14     13     14 1 
    15     13     20 ar
    16     14     15 1 
    17     15     16 1 
    18     16     17 1 
    19     17     18 1 
    20     18     19 1 
    21     19     15 1 
    22     20      9 ar
    23     21     22 2 
    24     21     23 1 
    25     23      5 ar
    26     23     24 ar
    27     24     25 ar
    28     25      3 ar
    29     25     26 1 
    30     26     27 1 
    31      1     28 1 
    32      1     29 1 
    33      1     30 1 
    34      4     31 1 
    35      6     32 1 
    36      6     33 1 
    37      8     34 1 
    38     10     35 1 
    39     11     36 1 
    40     12     37 1 
    41     14     38 1 
    42     14     39 1 
    43     16     40 1 
    44     16     41 1 
    45     17     42 1 
    46     17     43 1 
    47     18     44 1 
    48     18     45 1 
    49     19     46 1 
    50     19     47 1 
    51     20     48 1 
    52     24     49 1 
    53     27     50 1 
    54     27     51 1 
    55     27     52 1 
@<TRIPOS>SUBSTRUCTURE
     1 MOL1         1 MOLECULE          1 A
