# Molecule written by the XED library from Cresset
@<TRIPOS>MOLECULE
CHEMBL95020
    53     57      1
SMALL
USER_CHARGES
@<TRIPOS>ATOM
      1 O           -9.3508   -0.1319    0.2779 O.2       1 MOL1       -0.4137
      2 C           -8.1432   -0.0189    0.1424 C.2       1 MOL1        0.3060
      3 C           -7.1254   -1.1569    0.0776 C.3       1 MOL1        0.0285
      4 C           -5.8122   -0.4017   -0.0896 C.ar      1 MOL1       -0.0536
      5 C           -6.1323    0.9234   -0.1074 C.ar      1 MOL1        0.0977
      6 N           -7.4847    1.1406    0.0259 N.am      1 MOL1       -0.2048
      7 C           -5.1824    1.9372   -0.2470 C.ar      1 MOL1       -0.1080
      8 C           -3.8617    1.5898   -0.3712 C.ar      1 MOL1       -0.0533
      9 C           -3.5246    0.2339   -0.3546 C.ar      1 MOL1       -0.0167
     10 C           -2.3249   -0.5293   -0.4522 C.ar      1 MOL1        0.1005
     11 C           -0.9140    0.0080   -0.6172 C.3       1 MOL1       -0.0334
     12 C            0.0897   -0.7336    0.2860 C.3       1 MOL1       -0.0806
     13 C            1.5528   -0.2991    0.0585 C.3       1 MOL1       -0.0563
     14 C            2.4489   -1.2184    0.9092 C.3       1 MOL1       -0.0743
     15 C            3.9438   -0.8446    0.7829 C.3       1 MOL1       -0.0462
     16 N            4.2131    0.5811    0.4834 N.3       1 MOL1       -0.2521
     17 C            5.5444    0.9807    0.9924 C.3       1 MOL1       -0.0032
     18 C            6.7649    0.3651    0.3123 C.ar      1 MOL1       -0.0509
     19 C            7.0859   -0.9656    0.4758 C.ar      1 MOL1       -0.0846
     20 C            8.2035   -1.4948   -0.1280 C.ar      1 MOL1       -0.0900
     21 C            9.0146   -0.6928   -0.8957 C.ar      1 MOL1       -0.0906
     22 C            8.7027    0.6359   -1.0630 C.ar      1 MOL1       -0.0900
     23 C            7.5821    1.1605   -0.4614 C.ar      1 MOL1       -0.0846
     24 C            3.1706    1.4351    1.0813 C.3       1 MOL1       -0.0462
     25 C            1.7820    1.1850    0.4450 C.3       1 MOL1       -0.0743
     26 N           -2.5654   -1.8054   -0.3852 N.ar      1 MOL1       -0.2792
     27 O           -3.9641   -1.9738   -0.2286 O.3       1 MOL1       -0.0843
     28 C           -4.4850   -0.7413   -0.2174 C.ar      1 MOL1        0.1059
     29  H          -7.3304   -1.8669   -0.8678 H         1 MOL1        0.0558
     30  H          -7.1227   -1.7915    1.0961 H         1 MOL1        0.0558
     31  H          -7.8678    1.9330    0.0338 H         1 MOL1        0.2055
     32  H          -5.4601    2.8977   -0.2567 H         1 MOL1        0.0919
     33  H          -3.1564    2.2916   -0.4724 H         1 MOL1        0.0910
     34  H          -0.5827   -0.1262   -1.7628 H         1 MOL1        0.0503
     35  H          -0.9028    1.1757   -0.3408 H         1 MOL1        0.0503
     36  H          -0.2089   -0.5626    1.4356 H         1 MOL1        0.0465
     37  H          -0.0018   -1.9051    0.0423 H         1 MOL1        0.0465
     38  H           1.8450   -0.4709   -1.0935 H         1 MOL1        0.0488
     39  H           2.2993   -2.3667    0.5953 H         1 MOL1        0.0474
     40  H           2.1060   -1.0864    2.0523 H         1 MOL1        0.0474
     41  H           4.4461   -1.1736    1.8222 H         1 MOL1        0.0568
     42  H           4.4484   -1.4913   -0.0944 H         1 MOL1        0.0568
     43  H           5.6062    0.7566    2.1691 H         1 MOL1        0.0598
     44  H           5.6511    2.1708    0.8688 H         1 MOL1        0.0598
     45  H           6.5043   -1.5515    1.0384 H         1 MOL1        0.0908
     46  H           8.4284   -2.4614   -0.0059 H         1 MOL1        0.0906
     47  H           9.8302   -1.0752   -1.3288 H         1 MOL1        0.0906
     48  H           9.2921    1.2214   -1.6192 H         1 MOL1        0.0906
     49  H           7.3640    2.1284   -0.5834 H         1 MOL1        0.0908
     50  H           3.1172    1.2015    2.2578 H         1 MOL1        0.0568
     51  H           3.4351    2.5975    0.9334 H         1 MOL1        0.0568
     52  H           0.9528    1.5505    1.2318 H         1 MOL1        0.0474
     53  H           1.6709    1.8515   -0.5472 H         1 MOL1        0.0474
@<TRIPOS>BOND
     1      1      2 2 
     2      2      3 1 
     3      3      4 1 
     4      4      5 ar
     5      5      6 1 
     6      5      7 ar
     7      6      2 am
     8      7      8 ar
     9      8      9 ar
    10      9     10 ar
    11     10     11 1 
    12     10     26 ar
    13     11     12 1 
    14     12     13 1 
    15     13     14 1 
    16     14     15 1 
    17     15     16 1 
    18     16     17 1 
    19     16     24 1 
    20     17     18 1 
    21     18     19 ar
    22     19     20 ar
    23     20     21 ar
    24     21     22 ar
    25     22     23 ar
    26     23     18 ar
    27     24     25 1 
    28     25     13 1 
    29     26     27 ar
    30     27     28 ar
    31     28      4 ar
    32     28      9 ar
    33      3     29 1 
    34      3     30 1 
    35      6     31 1 
    36      7     32 1 
    37      8     33 1 
    38     11     34 1 
    39     11     35 1 
    40     12     36 1 
    41     12     37 1 
    42     13     38 1 
    43     14     39 1 
    44     14     40 1 
    45     15     41 1 
    46     15     42 1 
    47     17     43 1 
    48     17     44 1 
    49     19     45 1 
    50     20     46 1 
    51     21     47 1 
    52     22     48 1 
    53     23     49 1 
    54     24     50 1 
    55     24     51 1 
    56     25     52 1 
    57     25     53 1 
@<TRIPOS>SUBSTRUCTURE
     1 MOL1         1 MOLECULE          1 A
