# Molecule written by the XED library from Cresset
@<TRIPOS>MOLECULE
CHEMBL3818084
    51     54      1
SMALL
USER_CHARGES
@<TRIPOS>ATOM
      1 C           -7.8256   -2.6607    0.1683 C.3       1 MOL1       -0.0471
      2 O           -6.3858   -2.7461    0.1635 O.3       1 MOL1       -0.2006
      3 C           -5.6752   -1.6271    0.0317 C.ar      1 MOL1        0.0761
      4 C           -6.2708   -0.3730   -0.1047 C.ar      1 MOL1       -0.0813
      5 C           -5.5133    0.7619   -0.2446 C.ar      1 MOL1       -0.0567
      6 C           -4.1333    0.6313   -0.2469 C.ar      1 MOL1       -0.0065
      7 C           -3.0751    1.6190   -0.3810 C.2       1 MOL1        0.1997
      8 O           -3.3258    2.8084   -0.5156 O.2       1 MOL1       -0.3897
      9 C           -1.7583    1.0111   -0.3209 C.2       1 MOL1       -0.0313
     10 C           -0.6779    1.7858   -0.4331 C.2       1 MOL1       -0.0522
     11 C            0.7946    1.4449   -0.3218 C.3       1 MOL1       -0.0233
     12 C            1.0662    0.0992    0.3812 C.3       1 MOL1       -0.0701
     13 C            2.5792   -0.1643    0.5727 C.3       1 MOL1       -0.0455
     14 N            3.4353    1.0307    0.4094 N.3       1 MOL1       -0.2520
     15 C            4.7857    0.7833    0.9552 C.3       1 MOL1       -0.0032
     16 C            5.5636   -0.3675    0.3315 C.ar      1 MOL1       -0.0509
     17 C            5.4781   -1.6287    0.8796 C.ar      1 MOL1       -0.0846
     18 C            6.1800   -2.6757    0.3287 C.ar      1 MOL1       -0.0900
     19 C            6.9752   -2.4641   -0.7740 C.ar      1 MOL1       -0.0906
     20 C            7.0662   -1.2056   -1.3239 C.ar      1 MOL1       -0.0900
     21 C            6.3609   -0.1599   -0.7728 C.ar      1 MOL1       -0.0846
     22 C            2.8281    2.1869    1.0920 C.3       1 MOL1       -0.0455
     23 C            1.4710    2.5910    0.4663 C.3       1 MOL1       -0.0701
     24 C           -2.0141   -0.4765   -0.1346 C.3       1 MOL1       -0.0039
     25 C           -3.5298   -0.5989   -0.1067 C.ar      1 MOL1       -0.0261
     26 C           -4.2899   -1.7277    0.0313 C.ar      1 MOL1       -0.0769
     27  H          -8.2090   -2.1867   -0.8659 H         1 MOL1        0.0618
     28  H          -8.2842   -3.7620    0.2950 H         1 MOL1        0.0618
     29  H          -8.1874   -1.9735    1.0832 H         1 MOL1        0.0618
     30  H          -7.2672   -0.2958   -0.1019 H         1 MOL1        0.0924
     31  H          -5.9452    1.6584   -0.3438 H         1 MOL1        0.0910
     32  H          -0.8708    2.7457   -0.5790 H         1 MOL1        0.0887
     33  H           1.2779    1.4277   -1.4208 H         1 MOL1        0.0514
     34  H           0.5456    0.1572    1.4612 H         1 MOL1        0.0476
     35  H           0.5877   -0.8058   -0.2427 H         1 MOL1        0.0476
     36  H           2.7299   -0.6386    1.6659 H         1 MOL1        0.0568
     37  H           2.9466   -0.9769   -0.2313 H         1 MOL1        0.0568
     38  H           4.7058    0.6005    2.1393 H         1 MOL1        0.0598
     39  H           5.4381    1.7784    0.7959 H         1 MOL1        0.0598
     40  H           4.9014   -1.7836    1.6818 H         1 MOL1        0.0908
     41  H           6.1127   -3.5892    0.7300 H         1 MOL1        0.0906
     42  H           7.4872   -3.2241   -1.1747 H         1 MOL1        0.0906
     43  H           7.6455   -1.0506   -2.1242 H         1 MOL1        0.0906
     44  H           6.4285    0.7537   -1.1739 H         1 MOL1        0.0908
     45  H           3.5590    3.1390    1.0486 H         1 MOL1        0.0568
     46  H           2.6639    1.8980    2.2460 H         1 MOL1        0.0568
     47  H           1.6302    3.5158   -0.2830 H         1 MOL1        0.0476
     48  H           0.7303    2.9471    1.3412 H         1 MOL1        0.0476
     49  H          -1.5916   -1.0987   -1.0694 H         1 MOL1        0.0524
     50  H          -1.5505   -0.8783    0.8964 H         1 MOL1        0.0524
     51  H          -3.8481   -2.6197    0.1307 H         1 MOL1        0.0926
@<TRIPOS>BOND
     1      1      2 1 
     2      2      3 1 
     3      3      4 ar
     4      4      5 ar
     5      5      6 ar
     6      6      7 1 
     7      7      8 2 
     8      7      9 1 
     9      9     10 2 
    10      9     24 1 
    11     10     11 1 
    12     11     12 1 
    13     12     13 1 
    14     13     14 1 
    15     14     15 1 
    16     14     22 1 
    17     15     16 1 
    18     16     17 ar
    19     17     18 ar
    20     18     19 ar
    21     19     20 ar
    22     20     21 ar
    23     21     16 ar
    24     22     23 1 
    25     23     11 1 
    26     24     25 1 
    27     25      6 ar
    28     25     26 ar
    29     26      3 ar
    30      1     27 1 
    31      1     28 1 
    32      1     29 1 
    33      4     30 1 
    34      5     31 1 
    35     10     32 1 
    36     11     33 1 
    37     12     34 1 
    38     12     35 1 
    39     13     36 1 
    40     13     37 1 
    41     15     38 1 
    42     15     39 1 
    43     17     40 1 
    44     18     41 1 
    45     19     42 1 
    46     20     43 1 
    47     21     44 1 
    48     22     45 1 
    49     22     46 1 
    50     23     47 1 
    51     23     48 1 
    52     24     49 1 
    53     24     50 1 
    54     26     51 1 
@<TRIPOS>SUBSTRUCTURE
     1 MOL1         1 MOLECULE          1 A
