# Molecule written by the XED library from Cresset
@<TRIPOS>MOLECULE
CHEMBL475161
    55     58      1
SMALL
USER_CHARGES
@<TRIPOS>ATOM
      1 C            4.1315   -4.3033   -0.4413 C.3       1 MOL1       -0.0471
      2 O            4.9785   -3.1596   -0.2051 O.3       1 MOL1       -0.1993
      3 C            4.4172   -1.9505   -0.0943 C.ar      1 MOL1        0.0824
      4 C            3.0451   -1.7566   -0.2267 C.ar      1 MOL1       -0.0742
      5 C            2.5164   -0.4978   -0.1054 C.ar      1 MOL1       -0.0420
      6 C            1.0700   -0.0343   -0.2295 C.3       1 MOL1       -0.0041
      7 C            1.1179    1.4660    0.0309 C.2       1 MOL1       -0.0323
      8 C            0.2383    2.4859    0.1126 C.2       1 MOL1       -0.0234
      9 C           -1.2182    2.3699   -0.1232 C.ar      1 MOL1       -0.0255
     10 C           -1.9734    3.5278   -0.0214 C.ar      1 MOL1       -0.0708
     11 C           -3.3247    3.5064   -0.2627 C.ar      1 MOL1       -0.0886
     12 C           -3.9435    2.3280   -0.6125 C.ar      1 MOL1       -0.0739
     13 C           -3.2163    1.1606   -0.7052 C.ar      1 MOL1       -0.0490
     14 C           -3.8784   -0.1521   -1.1060 C.3       1 MOL1       -0.0031
     15 N           -4.6450   -0.8159   -0.0291 N.3       1 MOL1       -0.2521
     16 C           -6.0547   -0.3687   -0.0473 C.3       1 MOL1       -0.0469
     17 C           -6.8733   -1.0220    1.0849 C.3       1 MOL1       -0.0785
     18 C           -6.8234   -2.5529    0.9323 C.3       1 MOL1       -0.0843
     19 C           -5.3522   -3.0056    0.9323 C.3       1 MOL1       -0.0785
     20 C           -4.5852   -2.2808   -0.1936 C.3       1 MOL1       -0.0469
     21 C           -1.8625    1.1866   -0.4583 C.ar      1 MOL1       -0.0652
     22 C            2.5159    1.7543    0.2454 C.2       1 MOL1        0.1921
     23 O            3.0041    2.8538    0.4712 O.2       1 MOL1       -0.3952
     24 C            3.3468    0.5641    0.1579 C.ar      1 MOL1       -0.0045
     25 C            4.7168    0.4030    0.2913 C.ar      1 MOL1       -0.0552
     26 C            5.2563   -0.8610    0.1600 C.ar      1 MOL1        0.0721
     27 O            6.5778   -1.0886    0.2690 O.3       1 MOL1       -0.2025
     28 C            7.4624    0.0282    0.4863 C.3       1 MOL1       -0.0471
     29  H           3.5444   -4.1695   -1.4800 H         1 MOL1        0.0618
     30  H           4.8069   -5.2936   -0.5019 H         1 MOL1        0.0618
     31  H           3.3464   -4.4165    0.4594 H         1 MOL1        0.0618
     32  H           2.4408   -2.5306   -0.4127 H         1 MOL1        0.0926
     33  H           0.3761   -0.5832    0.5815 H         1 MOL1        0.0524
     34  H           0.6747   -0.2477   -1.3426 H         1 MOL1        0.0524
     35  H           0.5986    3.3829    0.3314 H         1 MOL1        0.0912
     36  H          -1.5277    4.3886    0.2239 H         1 MOL1        0.0910
     37  H          -3.8584    4.3490   -0.1900 H         1 MOL1        0.0906
     38  H          -4.9235    2.3234   -0.8031 H         1 MOL1        0.0908
     39  H          -2.9840   -0.8685   -1.4662 H         1 MOL1        0.0598
     40  H          -4.5636    0.0410   -2.0725 H         1 MOL1        0.0598
     41  H          -6.1288    0.8199    0.0866 H         1 MOL1        0.0568
     42  H          -6.5624   -0.6810   -1.0891 H         1 MOL1        0.0568
     43  H          -8.0121   -0.6469    1.0288 H         1 MOL1        0.0471
     44  H          -6.4015   -0.7156    2.1448 H         1 MOL1        0.0471
     45  H          -7.4111   -3.0710    1.8414 H         1 MOL1        0.0460
     46  H          -7.3371   -2.8699   -0.1050 H         1 MOL1        0.0460
     47  H          -4.8611   -2.7236    1.9900 H         1 MOL1        0.0471
     48  H          -5.2902   -4.1925    0.7684 H         1 MOL1        0.0471
     49  H          -5.0676   -2.5721   -1.2525 H         1 MOL1        0.0568
     50  H          -3.4485   -2.6627   -0.1591 H         1 MOL1        0.0568
     51  H          -1.3371    0.3417   -0.5363 H         1 MOL1        0.0912
     52  H           5.3013    1.1932    0.4778 H         1 MOL1        0.0928
     53  H           8.5966   -0.3603    0.5319 H         1 MOL1        0.0618
     54  H           7.3494    0.8186   -0.4096 H         1 MOL1        0.0618
     55  H           7.1835    0.5548    1.5268 H         1 MOL1        0.0618
@<TRIPOS>BOND
     1      1      2 1 
     2      2      3 1 
     3      3      4 ar
     4      4      5 ar
     5      5      6 1 
     6      6      7 1 
     7      7      8 2 
     8      7     22 1 
     9      8      9 1 
    10      9     10 ar
    11     10     11 ar
    12     11     12 ar
    13     12     13 ar
    14     13     14 1 
    15     13     21 ar
    16     14     15 1 
    17     15     16 1 
    18     16     17 1 
    19     17     18 1 
    20     18     19 1 
    21     19     20 1 
    22     20     15 1 
    23     21      9 ar
    24     22     23 2 
    25     22     24 1 
    26     24      5 ar
    27     24     25 ar
    28     25     26 ar
    29     26      3 ar
    30     26     27 1 
    31     27     28 1 
    32      1     29 1 
    33      1     30 1 
    34      1     31 1 
    35      4     32 1 
    36      6     33 1 
    37      6     34 1 
    38      8     35 1 
    39     10     36 1 
    40     11     37 1 
    41     12     38 1 
    42     14     39 1 
    43     14     40 1 
    44     16     41 1 
    45     16     42 1 
    46     17     43 1 
    47     17     44 1 
    48     18     45 1 
    49     18     46 1 
    50     19     47 1 
    51     19     48 1 
    52     20     49 1 
    53     20     50 1 
    54     21     51 1 
    55     25     52 1 
    56     28     53 1 
    57     28     54 1 
    58     28     55 1 
@<TRIPOS>SUBSTRUCTURE
     1 MOL1         1 MOLECULE          1 A
