# Molecule written by the XED library from Cresset
@<TRIPOS>MOLECULE
CHEMBL188338
    51     53      1
SMALL
USER_CHARGES
@<TRIPOS>ATOM
      1 C            7.0233   -1.0835    0.3915 C.3       1 MOL1       -0.0471
      2 O            6.3921    0.1940    0.1735 O.3       1 MOL1       -0.2030
      3 C            5.0515    0.2514    0.0682 C.ar      1 MOL1        0.0675
      4 C            4.2612   -0.8751    0.1897 C.ar      1 MOL1       -0.0629
      5 C            2.8824   -0.7653    0.0726 C.ar      1 MOL1       -0.0209
      6 C            1.8765   -1.7823    0.1744 C.ar      1 MOL1       -0.0199
      7 C            0.6281   -1.3223   -0.0048 C.ar      1 MOL1        0.0513
      8 S            0.5637    0.4445   -0.3116 S.3       1 MOL1       -0.1190
      9 C            2.3360    0.4749   -0.1714 C.ar      1 MOL1        0.0427
     10 C            3.0922    1.6125   -0.2912 C.ar      1 MOL1       -0.0632
     11 C            4.4677    1.5033   -0.1691 C.ar      1 MOL1        0.0822
     12 O            5.2735    2.5702   -0.2711 O.3       1 MOL1       -0.1990
     13 C            4.6862    3.8738   -0.4639 C.3       1 MOL1       -0.0471
     14 C           -0.6544   -2.0330    0.0416 C.2       1 MOL1        0.1805
     15 O           -0.5742   -3.1178    0.5959 O.2       1 MOL1       -0.3824
     16 C           -2.0335   -1.6207   -0.4790 C.3       1 MOL1        0.0053
     17 C           -3.1627   -2.1270    0.4492 C.3       1 MOL1       -0.0768
     18 C           -4.5631   -2.0465   -0.1939 C.3       1 MOL1       -0.0789
     19 C           -5.2301   -0.6671    0.0230 C.3       1 MOL1       -0.0523
     20 N           -4.7549    0.5212   -0.8002 N.4       1 MOL1       -0.1511
     21 C           -5.8316    0.8679   -1.8000 C.3       1 MOL1       -0.0785
     22 C           -4.5294    1.7259    0.0965 C.3       1 MOL1        0.0198
     23 C           -5.7148    2.2825    0.7658 C.1       1 MOL1        0.3820
     24 N           -6.6302    2.7160    1.2805 N.1       1 MOL1       -0.4733
     25 C           -3.4945    0.2391   -1.5995 C.3       1 MOL1       -0.0509
     26 C           -2.2019   -0.1265   -0.8273 C.3       1 MOL1       -0.0668
     27  H           8.2118   -0.9275    0.4473 H         1 MOL1        0.0618
     28  H           6.7609   -1.8223   -0.5170 H         1 MOL1        0.0618
     29  H           6.6419   -1.5586    1.4255 H         1 MOL1        0.0618
     30  H           4.6761   -1.7682    0.3603 H         1 MOL1        0.0928
     31  H           2.0840   -2.7419    0.3638 H         1 MOL1        0.0929
     32  H           2.6573    2.4962   -0.4627 H         1 MOL1        0.0943
     33  H           3.9428    4.1272    0.4439 H         1 MOL1        0.0618
     34  H           5.5562    4.6997   -0.5011 H         1 MOL1        0.0618
     35  H           4.0782    3.8929   -1.4983 H         1 MOL1        0.0618
     36  H          -2.1192   -2.1744   -1.5397 H         1 MOL1        0.0543
     37  H          -3.1377   -1.5236    1.4858 H         1 MOL1        0.0465
     38  H          -2.9469   -3.2835    0.6874 H         1 MOL1        0.0465
     39  H          -4.5288   -2.3669   -1.3492 H         1 MOL1        0.0469
     40  H          -5.2511   -2.8521    0.3724 H         1 MOL1        0.0469
     41  H          -5.1619   -0.4191    1.1947 H         1 MOL1        0.0544
     42  H          -6.3980   -0.8439   -0.1941 H         1 MOL1        0.0544
     43  H          -6.0629   -0.0733   -2.5069 H         1 MOL1        0.0518
     44  H          -6.8458    1.1812   -1.2378 H         1 MOL1        0.0518
     45  H          -5.4867    1.7981   -2.4754 H         1 MOL1        0.0518
     46  H          -3.7609    1.4629    0.9780 H         1 MOL1        0.0634
     47  H          -4.0576    2.6179   -0.5522 H         1 MOL1        0.0634
     48  H          -3.7080   -0.6023   -2.4267 H         1 MOL1        0.0544
     49  H          -3.2344    1.2346   -2.2185 H         1 MOL1        0.0544
     50  H          -1.2983    0.1030   -1.5832 H         1 MOL1        0.0473
     51  H          -2.0251    0.5472    0.1467 H         1 MOL1        0.0473
@<TRIPOS>BOND
     1      1      2 1 
     2      2      3 1 
     3      3      4 ar
     4      4      5 ar
     5      5      6 ar
     6      6      7 ar
     7      7      8 ar
     8      7     14 1 
     9      8      9 ar
    10      9      5 ar
    11      9     10 ar
    12     10     11 ar
    13     11      3 ar
    14     11     12 1 
    15     12     13 1 
    16     14     15 2 
    17     14     16 1 
    18     16     17 1 
    19     17     18 1 
    20     18     19 1 
    21     19     20 1 
    22     20     21 1 
    23     20     22 1 
    24     20     25 1 
    25     22     23 1 
    26     23     24 3 
    27     25     26 1 
    28     26     16 1 
    29      1     27 1 
    30      1     28 1 
    31      1     29 1 
    32      4     30 1 
    33      6     31 1 
    34     10     32 1 
    35     13     33 1 
    36     13     34 1 
    37     13     35 1 
    38     16     36 1 
    39     17     37 1 
    40     17     38 1 
    41     18     39 1 
    42     18     40 1 
    43     19     41 1 
    44     19     42 1 
    45     21     43 1 
    46     21     44 1 
    47     21     45 1 
    48     22     46 1 
    49     22     47 1 
    50     25     48 1 
    51     25     49 1 
    52     26     50 1 
    53     26     51 1 
@<TRIPOS>SUBSTRUCTURE
     1 MOL1         1 MOLECULE          1 A
