# Molecule written by the XED library from Cresset
@<TRIPOS>MOLECULE
CHEMBL3122167
    46     49      1
SMALL
USER_CHARGES
@<TRIPOS>ATOM
      1 C           -7.5261    1.2911    0.0140 C.3       1 MOL1       -0.1037
      2 C           -6.8585   -0.0929    0.0074 C.3       1 MOL1        0.0659
      3 N           -5.3920    0.0018   -0.0064 N.am      1 MOL1       -0.3960
      4 C           -4.6478   -1.1256    0.0278 C.2       1 MOL1        0.3046
      5 O           -5.1463   -2.2510    0.0386 O.2       1 MOL1       -0.4192
      6 C           -3.1632   -1.0563    0.0467 C.ar      1 MOL1       -0.0033
      7 C           -2.4299   -2.2634    0.0632 C.ar      1 MOL1       -0.0509
      8 C           -1.0824   -2.2664    0.0681 C.ar      1 MOL1       -0.0810
      9 C           -0.3580   -1.0562    0.0510 C.ar      1 MOL1        0.0598
     10 N            0.9975   -1.1673    0.0471 N.ar      1 MOL1       -0.3932
     11 C            1.6971   -0.0154    0.0184 C.ar      1 MOL1        0.0894
     12 C            1.0791    1.2480   -0.0336 C.ar      1 MOL1       -0.0796
     13 C            1.8835    2.5474   -0.1283 C.3       1 MOL1       -0.0420
     14 C            1.1196    3.7554   -0.6950 C.3       1 MOL1       -0.0728
     15 C           -0.1909    3.8512    0.0947 C.3       1 MOL1       -0.0459
     16 N           -0.9361    2.5917   -0.0653 N.pl3     1 MOL1       -0.2834
     17 C           -0.2964    1.3452   -0.0141 C.ar      1 MOL1        0.1150
     18 C           -1.0592    0.1581    0.0322 C.ar      1 MOL1       -0.0051
     19 C           -2.4664    0.1241    0.0388 C.ar      1 MOL1       -0.0276
     20 C            3.1382   -0.2653    0.0366 C.ar      1 MOL1       -0.0139
     21 C            3.5760   -1.4830   -0.4732 C.ar      1 MOL1       -0.0614
     22 C            4.9087   -1.8179   -0.4831 C.ar      1 MOL1       -0.0623
     23 C            5.8402   -0.9385    0.0263 C.ar      1 MOL1        0.0547
     24 Cl           7.5280   -1.3583    0.0231 Cl        1 MOL1       -0.1064
     25 C            5.4301    0.2716    0.5447 C.ar      1 MOL1       -0.0623
     26 C            4.0958    0.6004    0.5526 C.ar      1 MOL1       -0.0614
     27  H          -8.7178    1.1524    0.0265 H         1 MOL1        0.0446
     28  H          -7.2039    1.8969   -0.9704 H         1 MOL1        0.0446
     29  H          -7.1834    1.8979    0.9910 H         1 MOL1        0.0446
     30  H          -7.2196   -0.6964   -0.9648 H         1 MOL1        0.0588
     31  H          -7.1979   -0.6928    0.9897 H         1 MOL1        0.0588
     32  H          -5.0114    0.7927   -0.0378 H         1 MOL1        0.2040
     33  H          -2.9219   -3.1343    0.0698 H         1 MOL1        0.0910
     34  H          -0.5914   -3.1375    0.0798 H         1 MOL1        0.0919
     35  H           2.8348    2.3804   -0.8400 H         1 MOL1        0.0492
     36  H           2.2336    2.8531    0.9783 H         1 MOL1        0.0492
     37  H           0.8798    3.5715   -1.8571 H         1 MOL1        0.0474
     38  H           1.7519    4.7680   -0.5591 H         1 MOL1        0.0474
     39  H          -0.8415    4.7702   -0.3211 H         1 MOL1        0.0568
     40  H           0.0571    4.0262    1.2566 H         1 MOL1        0.0568
     41  H          -1.8050    2.6260    0.0659 H         1 MOL1        0.2758
     42  H          -2.9731    0.9826    0.0284 H         1 MOL1        0.0914
     43  H           2.9055   -2.1290   -0.8405 H         1 MOL1        0.0910
     44  H           5.2032   -2.6988   -0.8562 H         1 MOL1        0.0939
     45  H           6.1040    0.9096    0.9201 H         1 MOL1        0.0939
     46  H           3.8158    1.4736    0.9456 H         1 MOL1        0.0910
@<TRIPOS>BOND
     1      1      2 1 
     2      2      3 1 
     3      3      4 am
     4      4      5 2 
     5      4      6 1 
     6      6      7 ar
     7      7      8 ar
     8      8      9 ar
     9      9     10 ar
    10     10     11 ar
    11     11     12 ar
    12     11     20 1 
    13     12     13 1 
    14     13     14 1 
    15     14     15 1 
    16     15     16 1 
    17     16     17 1 
    18     17     12 ar
    19     17     18 ar
    20     18      9 ar
    21     18     19 ar
    22     19      6 ar
    23     20     21 ar
    24     21     22 ar
    25     22     23 ar
    26     23     24 1 
    27     23     25 ar
    28     25     26 ar
    29     26     20 ar
    30      1     27 1 
    31      1     28 1 
    32      1     29 1 
    33      2     30 1 
    34      2     31 1 
    35      3     32 1 
    36      7     33 1 
    37      8     34 1 
    38     13     35 1 
    39     13     36 1 
    40     14     37 1 
    41     14     38 1 
    42     15     39 1 
    43     15     40 1 
    44     16     41 1 
    45     19     42 1 
    46     21     43 1 
    47     22     44 1 
    48     25     45 1 
    49     26     46 1 
@<TRIPOS>SUBSTRUCTURE
     1 MOL1         1 MOLECULE          1 A
