# Molecule written by the XED library from Cresset
@<TRIPOS>MOLECULE
CHEMBL601282
    47     49      1
SMALL
USER_CHARGES
@<TRIPOS>ATOM
      1 C           -6.7379    1.2738    0.5918 C.3       1 MOL1       -0.1072
      2 C           -5.6354    0.8505   -0.3947 C.3       1 MOL1       -0.0525
      3 N           -4.7826   -0.1927    0.2166 N.3       1 MOL1       -0.2564
      4 C           -5.0815   -1.5195   -0.3660 C.3       1 MOL1       -0.0525
      5 C           -6.5033   -2.0448   -0.0906 C.3       1 MOL1       -0.1072
      6 C           -3.3570    0.1415    0.0228 C.3       1 MOL1       -0.0222
      7 C           -2.3779   -0.6645    0.9005 C.3       1 MOL1        0.0823
      8 N           -1.0356   -0.0883    0.7408 N.am      1 MOL1       -0.3916
      9 C           -0.0255   -0.8380    0.2398 C.2       1 MOL1        0.4237
     10 O           -0.1938   -2.0332   -0.0068 O.2       1 MOL1       -0.4490
     11 N            1.1970   -0.2592    0.0545 N.am      1 MOL1       -0.0610
     12 C            2.3583   -1.0659   -0.0337 C.ar      1 MOL1        0.0828
     13 C            2.3699   -2.2279   -0.7870 C.ar      1 MOL1       -0.0976
     14 C            3.4995   -3.0107   -0.8562 C.ar      1 MOL1       -0.0931
     15 C            4.6401   -2.6475   -0.1758 C.ar      1 MOL1       -0.1139
     16 C            4.6546   -1.4931    0.5747 C.ar      1 MOL1       -0.0740
     17 C            3.5227   -0.7172    0.6362 C.ar      1 MOL1        0.0260
     18 S            3.5502    0.7993    1.5913 S.3       1 MOL1       -0.1317
     19 C            2.4035    1.7850    0.6298 C.ar      1 MOL1        0.0260
     20 C            2.5815    3.1449    0.5536 C.ar      1 MOL1       -0.0740
     21 C            1.7144    3.8959   -0.2084 C.ar      1 MOL1       -0.1139
     22 C            0.6858    3.2814   -0.8874 C.ar      1 MOL1       -0.0931
     23 C            0.5145    1.9184   -0.8045 C.ar      1 MOL1       -0.0976
     24 C            1.3682    1.1450   -0.0356 C.ar      1 MOL1        0.0828
     25  H          -7.4183    2.1226    0.0853 H         1 MOL1        0.0444
     26  H          -6.2288    1.7158    1.5846 H         1 MOL1        0.0444
     27  H          -7.4271    0.3382    0.8880 H         1 MOL1        0.0444
     28  H          -5.0261    1.8554   -0.6387 H         1 MOL1        0.0566
     29  H          -6.1307    0.4923   -1.4277 H         1 MOL1        0.0566
     30  H          -4.3639   -2.3392    0.1309 H         1 MOL1        0.0566
     31  H          -4.8802   -1.5154   -1.5493 H         1 MOL1        0.0566
     32  H          -7.3188   -1.4231   -0.7129 H         1 MOL1        0.0444
     33  H          -6.7385   -1.9744    1.0839 H         1 MOL1        0.0444
     34  H          -6.5609   -3.1939   -0.4319 H         1 MOL1        0.0444
     35  H          -3.0598    0.0256   -1.1340 H         1 MOL1        0.0581
     36  H          -3.1697    1.2799    0.3549 H         1 MOL1        0.0581
     37  H          -2.7108   -0.5754    2.0500 H         1 MOL1        0.0600
     38  H          -2.3388   -1.8193    0.5836 H         1 MOL1        0.0600
     39  H          -0.8933    0.7446    0.9817 H         1 MOL1        0.2045
     40  H           1.5475   -2.5036   -1.2844 H         1 MOL1        0.0919
     41  H           3.4916   -3.8481   -1.4027 H         1 MOL1        0.0906
     42  H           5.4580   -3.2205   -0.2283 H         1 MOL1        0.0906
     43  H           5.4811   -1.2211    1.0674 H         1 MOL1        0.0925
     44  H           3.3348    3.5843    1.0430 H         1 MOL1        0.0925
     45  H           1.8336    4.8868   -0.2714 H         1 MOL1        0.0906
     46  H           0.0598    3.8286   -1.4430 H         1 MOL1        0.0906
     47  H          -0.2361    1.4827   -1.3013 H         1 MOL1        0.0919
@<TRIPOS>BOND
     1      1      2 1 
     2      2      3 1 
     3      3      4 1 
     4      3      6 1 
     5      4      5 1 
     6      6      7 1 
     7      7      8 1 
     8      8      9 am
     9      9     10 2 
    10      9     11 am
    11     11     12 1 
    12     12     13 ar
    13     13     14 ar
    14     14     15 ar
    15     15     16 ar
    16     16     17 ar
    17     17     12 ar
    18     17     18 1 
    19     18     19 1 
    20     19     20 ar
    21     20     21 ar
    22     21     22 ar
    23     22     23 ar
    24     23     24 ar
    25     24     11 1 
    26     24     19 ar
    27      1     25 1 
    28      1     26 1 
    29      1     27 1 
    30      2     28 1 
    31      2     29 1 
    32      4     30 1 
    33      4     31 1 
    34      5     32 1 
    35      5     33 1 
    36      5     34 1 
    37      6     35 1 
    38      6     36 1 
    39      7     37 1 
    40      7     38 1 
    41      8     39 1 
    42     13     40 1 
    43     14     41 1 
    44     15     42 1 
    45     16     43 1 
    46     20     44 1 
    47     21     45 1 
    48     22     46 1 
    49     23     47 1 
@<TRIPOS>SUBSTRUCTURE
     1 MOL1         1 MOLECULE          1 A
