# Molecule written by the XED library from Cresset
@<TRIPOS>MOLECULE
CHEMBL3819155
    52     55      1
SMALL
USER_CHARGES
@<TRIPOS>ATOM
      1 C           -8.0280    0.3295    0.4079 C.3       1 MOL1       -0.0471
      2 O           -7.2834   -0.9023    0.3265 O.3       1 MOL1       -0.2025
      3 C           -5.9455   -0.8430    0.2055 C.ar      1 MOL1        0.0709
      4 C           -5.2528    0.3503    0.1932 C.ar      1 MOL1       -0.0542
      5 C           -3.8724    0.3176    0.0565 C.ar      1 MOL1       -0.0047
      6 C           -2.8980    1.3930   -0.0061 C.2       1 MOL1        0.1999
      7 O           -3.2372    2.5623    0.1035 O.2       1 MOL1       -0.3896
      8 C           -1.5513    0.8967   -0.2186 C.2       1 MOL1       -0.0313
      9 C           -0.5726    1.7769   -0.4318 C.2       1 MOL1       -0.0523
     10 C            0.9016    1.5888   -0.7134 C.3       1 MOL1       -0.0233
     11 C            1.4374    0.1486   -0.5913 C.3       1 MOL1       -0.0701
     12 C            2.9418    0.1407   -0.9344 C.3       1 MOL1       -0.0455
     13 N            3.7284    1.0462   -0.0701 N.3       1 MOL1       -0.2520
     14 C            5.1502    1.0333   -0.4681 C.3       1 MOL1       -0.0032
     15 C            5.9195   -0.2374   -0.1307 C.ar      1 MOL1       -0.0509
     16 C            6.0096   -1.2655   -1.0437 C.ar      1 MOL1       -0.0846
     17 C            6.7194   -2.4051   -0.7411 C.ar      1 MOL1       -0.0900
     18 C            7.3468   -2.5207    0.4779 C.ar      1 MOL1       -0.0906
     19 C            7.2608   -1.4973    1.3935 C.ar      1 MOL1       -0.0900
     20 C            6.5483   -0.3595    1.0894 C.ar      1 MOL1       -0.0846
     21 C            3.2017    2.4215   -0.1631 C.3       1 MOL1       -0.0455
     22 C            1.7135    2.4898    0.2345 C.3       1 MOL1       -0.0701
     23 C           -1.6855   -0.6188   -0.2079 C.3       1 MOL1       -0.0043
     24 C           -3.1813   -0.8660   -0.0652 C.ar      1 MOL1       -0.0408
     25 C           -3.8626   -2.0545   -0.0498 C.ar      1 MOL1       -0.0747
     26 C           -5.2407   -2.0407    0.0849 C.ar      1 MOL1        0.0737
     27 O           -5.9224   -3.2146    0.0973 O.3       1 MOL1       -0.3785
     28  H          -9.1974    0.0786    0.5058 H         1 MOL1        0.0618
     29  H          -7.6749    0.9524    1.3710 H         1 MOL1        0.0618
     30  H          -7.8409    0.9810   -0.5824 H         1 MOL1        0.0618
     31  H          -5.7333    1.2232    0.2764 H         1 MOL1        0.0928
     32  H          -0.8585    2.7229   -0.3958 H         1 MOL1        0.0887
     33  H           1.1104    1.9801   -1.8281 H         1 MOL1        0.0514
     34  H           1.2662   -0.2553    0.5261 H         1 MOL1        0.0476
     35  H           0.8796   -0.5669   -1.3744 H         1 MOL1        0.0476
     36  H           3.3466   -0.9818   -0.8131 H         1 MOL1        0.0568
     37  H           3.0592    0.4769   -2.0802 H         1 MOL1        0.0568
     38  H           5.7194    1.9223    0.1044 H         1 MOL1        0.0598
     39  H           5.2439    1.2641   -1.6427 H         1 MOL1        0.0598
     40  H           5.5569   -1.1828   -1.9316 H         1 MOL1        0.0908
     41  H           6.7802   -3.1483   -1.4075 H         1 MOL1        0.0906
     42  H           7.8648   -3.3474    0.6980 H         1 MOL1        0.0906
     43  H           7.7168   -1.5798    2.2797 H         1 MOL1        0.0906
     44  H           6.4899    0.3838    1.7560 H         1 MOL1        0.0908
     45  H           3.8142    3.1527    0.5654 H         1 MOL1        0.0568
     46  H           3.3194    2.8105   -1.2924 H         1 MOL1        0.0568
     47  H           1.5767    2.1134    1.3661 H         1 MOL1        0.0476
     48  H           1.3278    3.6222    0.1390 H         1 MOL1        0.0476
     49  H          -1.3023   -1.1054   -1.2345 H         1 MOL1        0.0524
     50  H          -1.1078   -1.0857    0.7344 H         1 MOL1        0.0524
     51  H          -3.3709   -2.9210   -0.1367 H         1 MOL1        0.0926
     52  H          -5.3038   -4.0023    0.0010 H         1 MOL1        0.3295
@<TRIPOS>BOND
     1      1      2 1 
     2      2      3 1 
     3      3      4 ar
     4      4      5 ar
     5      5      6 1 
     6      6      7 2 
     7      6      8 1 
     8      8      9 2 
     9      8     23 1 
    10      9     10 1 
    11     10     11 1 
    12     11     12 1 
    13     12     13 1 
    14     13     14 1 
    15     13     21 1 
    16     14     15 1 
    17     15     16 ar
    18     16     17 ar
    19     17     18 ar
    20     18     19 ar
    21     19     20 ar
    22     20     15 ar
    23     21     22 1 
    24     22     10 1 
    25     23     24 1 
    26     24      5 ar
    27     24     25 ar
    28     25     26 ar
    29     26      3 ar
    30     26     27 1 
    31      1     28 1 
    32      1     29 1 
    33      1     30 1 
    34      4     31 1 
    35      9     32 1 
    36     10     33 1 
    37     11     34 1 
    38     11     35 1 
    39     12     36 1 
    40     12     37 1 
    41     14     38 1 
    42     14     39 1 
    43     16     40 1 
    44     17     41 1 
    45     18     42 1 
    46     19     43 1 
    47     20     44 1 
    48     21     45 1 
    49     21     46 1 
    50     22     47 1 
    51     22     48 1 
    52     23     49 1 
    53     23     50 1 
    54     25     51 1 
    55     27     52 1 
@<TRIPOS>SUBSTRUCTURE
     1 MOL1         1 MOLECULE          1 A
