# Molecule written by the XED library from Cresset
@<TRIPOS>MOLECULE
CHEMBL362350
    51     54      1
SMALL
USER_CHARGES
@<TRIPOS>ATOM
      1 C            5.7379    2.8457    0.0326 C.2       1 MOL1        0.0352
      2 N            5.0989    1.6842   -0.0074 N.pl3     1 MOL1        0.0875
      3 N            3.7449    1.4195   -0.0730 N.2       1 MOL1       -0.2945
      4 C            3.5109    0.1333   -0.0988 C.2       1 MOL1       -0.0111
      5 C            2.1202   -0.4491   -0.1914 C.3       1 MOL1       -0.0355
      6 C            1.0416    0.4642    0.4283 C.3       1 MOL1       -0.0807
      7 C           -0.3696    0.0828   -0.0677 C.3       1 MOL1       -0.0563
      8 C           -1.4040    1.1440    0.3462 C.3       1 MOL1       -0.0743
      9 C           -2.7675    0.7732   -0.2774 C.3       1 MOL1       -0.0462
     10 N           -3.2594   -0.5695    0.1112 N.3       1 MOL1       -0.2521
     11 C           -4.4793   -0.9171   -0.6520 C.3       1 MOL1       -0.0032
     12 C           -5.7964   -0.2432   -0.2844 C.ar      1 MOL1       -0.0509
     13 C           -6.0707    1.0532   -0.6626 C.ar      1 MOL1       -0.0846
     14 C           -7.2797    1.6311   -0.3481 C.ar      1 MOL1       -0.0900
     15 C           -8.2294    0.9111    0.3391 C.ar      1 MOL1       -0.0906
     16 C           -7.9653   -0.3855    0.7149 C.ar      1 MOL1       -0.0900
     17 C           -6.7521   -0.9574    0.4059 C.ar      1 MOL1       -0.0846
     18 C           -2.2217   -1.5921   -0.1408 C.3       1 MOL1       -0.0462
     19 C           -0.8581   -1.2632    0.4991 C.3       1 MOL1       -0.0743
     20 C            4.7691   -0.5839   -0.0439 C.ar      1 MOL1       -0.0232
     21 C            5.1483   -1.9210   -0.0412 C.ar      1 MOL1       -0.0808
     22 C            6.4900   -2.1910    0.0133 C.ar      1 MOL1       -0.1069
     23 C            7.4299   -1.1623    0.0637 C.ar      1 MOL1       -0.1000
     24 C            7.0460    0.1559    0.0615 C.ar      1 MOL1       -0.0776
     25 C            5.6880    0.4309    0.0066 C.ar      1 MOL1        0.0642
     26  H           5.2207    3.6897    0.0168 H         1 MOL1        0.0977
     27  H           6.7264    2.8783    0.0777 H         1 MOL1        0.0977
     28  H           2.1285   -1.5050    0.3779 H         1 MOL1        0.0503
     29  H           1.8827   -0.6331   -1.3532 H         1 MOL1        0.0503
     30  H           1.0926    0.4035    1.6259 H         1 MOL1        0.0465
     31  H           1.2685    1.5909    0.0823 H         1 MOL1        0.0465
     32  H          -0.3670    0.0275   -1.2665 H         1 MOL1        0.0488
     33  H          -1.0650    2.2216   -0.0589 H         1 MOL1        0.0474
     34  H          -1.4974    1.1766    1.5424 H         1 MOL1        0.0474
     35  H          -3.5553    1.6032    0.0798 H         1 MOL1        0.0568
     36  H          -2.6418    0.8329   -1.4692 H         1 MOL1        0.0568
     37  H          -4.6735   -2.0948   -0.5175 H         1 MOL1        0.0598
     38  H          -4.2904   -0.7457   -1.8247 H         1 MOL1        0.0598
     39  H          -5.3895    1.5771   -1.1731 H         1 MOL1        0.0908
     40  H          -7.4699    2.5735   -0.6234 H         1 MOL1        0.0906
     41  H          -9.1102    1.3287    0.5630 H         1 MOL1        0.0906
     42  H          -8.6556   -0.9125    1.2110 H         1 MOL1        0.0906
     43  H          -6.5665   -1.9017    0.6778 H         1 MOL1        0.0908
     44  H          -2.0552   -1.7071   -1.3239 H         1 MOL1        0.0568
     45  H          -2.5807   -2.6469    0.3050 H         1 MOL1        0.0568
     46  H          -0.9723   -1.1829    1.6912 H         1 MOL1        0.0474
     47  H          -0.0880   -2.1400    0.2238 H         1 MOL1        0.0474
     48  H           4.4701   -2.6550   -0.0786 H         1 MOL1        0.0910
     49  H           6.8004   -3.1416    0.0165 H         1 MOL1        0.0906
     50  H           8.4031   -1.3892    0.1020 H         1 MOL1        0.0906
     51  H           7.7241    0.8891    0.0978 H         1 MOL1        0.0921
@<TRIPOS>BOND
     1      1      2 2 
     2      2      3 1 
     3      3      4 2 
     4      4      5 1 
     5      4     20 1 
     6      5      6 1 
     7      6      7 1 
     8      7      8 1 
     9      8      9 1 
    10      9     10 1 
    11     10     11 1 
    12     10     18 1 
    13     11     12 1 
    14     12     13 ar
    15     13     14 ar
    16     14     15 ar
    17     15     16 ar
    18     16     17 ar
    19     17     12 ar
    20     18     19 1 
    21     19      7 1 
    22     20     21 ar
    23     21     22 ar
    24     22     23 ar
    25     23     24 ar
    26     24     25 ar
    27     25      2 1 
    28     25     20 ar
    29      1     26 1 
    30      1     27 1 
    31      5     28 1 
    32      5     29 1 
    33      6     30 1 
    34      6     31 1 
    35      7     32 1 
    36      8     33 1 
    37      8     34 1 
    38      9     35 1 
    39      9     36 1 
    40     11     37 1 
    41     11     38 1 
    42     13     39 1 
    43     14     40 1 
    44     15     41 1 
    45     16     42 1 
    46     17     43 1 
    47     18     44 1 
    48     18     45 1 
    49     19     46 1 
    50     19     47 1 
    51     21     48 1 
    52     22     49 1 
    53     23     50 1 
    54     24     51 1 
@<TRIPOS>SUBSTRUCTURE
     1 MOL1         1 MOLECULE          1 A
