# Molecule written by the XED library from Cresset
@<TRIPOS>MOLECULE
CHEMBL2312574
    42     46      1
SMALL
USER_CHARGES
@<TRIPOS>ATOM
      1 C           -1.4491    0.3305   -0.6635 C.3       1 MOL1       -0.0122
      2 C           -2.5243   -0.7517   -0.9387 C.3       1 MOL1        0.0485
      3 N           -1.8225   -1.8819   -0.3222 N.pl3     1 MOL1       -0.2257
      4 N           -0.5227   -1.6562    0.0158 N.2       1 MOL1       -0.2365
      5 C           -0.2125   -0.4275   -0.2234 C.2       1 MOL1        0.0227
      6 C            1.1894    0.0290   -0.0709 C.ar      1 MOL1        0.0020
      7 C            2.2229   -0.9284   -0.0003 C.ar      1 MOL1       -0.0099
      8 C            1.9874   -2.3250   -0.0661 C.ar      1 MOL1       -0.0807
      9 C            2.9909   -3.2247   -0.0038 C.ar      1 MOL1       -0.0893
     10 C            4.3286   -2.8030    0.1288 C.ar      1 MOL1       -0.0897
     11 C            4.6163   -1.4906    0.1927 C.ar      1 MOL1       -0.0811
     12 C            3.5751   -0.5339    0.1273 C.ar      1 MOL1       -0.0192
     13 C            3.9127    0.8012    0.1853 C.ar      1 MOL1       -0.0712
     14 C            2.9205    1.7576    0.1192 C.ar      1 MOL1       -0.0192
     15 C            3.3162    3.1155    0.1815 C.ar      1 MOL1       -0.0811
     16 C            2.3917    4.0896    0.1259 C.ar      1 MOL1       -0.0897
     17 C            1.0292    3.7553    0.0075 C.ar      1 MOL1       -0.0893
     18 C            0.6352    2.4666   -0.0549 C.ar      1 MOL1       -0.0807
     19 C            1.5577    1.3903   -0.0070 C.ar      1 MOL1       -0.0099
     20 C           -3.9186   -0.5468   -0.3673 C.ar      1 MOL1        0.0648
     21 C           -4.5005    0.6944   -0.4817 C.ar      1 MOL1       -0.0711
     22 C           -5.7625    0.8899    0.0117 C.ar      1 MOL1       -0.0359
     23 C           -6.4056   -0.1654    0.6008 C.ar      1 MOL1       -0.0767
     24 C           -5.7669   -1.3794    0.6786 C.ar      1 MOL1        0.0325
     25 N           -4.5249   -1.6048    0.2066 N.ar      1 MOL1       -0.3395
     26 H           -2.6048   -0.9590   -2.1182 H         1 MOL1        0.0645
     27  H          -1.8481    1.0042    0.2466 H         1 MOL1        0.0518
     28  H          -1.2467    0.9887   -1.6470 H         1 MOL1        0.0518
     29  H          -2.2824   -2.4607    0.1563 H         1 MOL1        0.2789
     30  H           1.0506   -2.6572   -0.1624 H         1 MOL1        0.0910
     31  H           2.7828   -4.2015   -0.0531 H         1 MOL1        0.0906
     32  H           5.0641   -3.4792    0.1742 H         1 MOL1        0.0906
     33  H           5.5658   -1.1906    0.2850 H         1 MOL1        0.0910
     34  H           4.8716    1.0725    0.2736 H         1 MOL1        0.0914
     35  H           4.2845    3.3501    0.2673 H         1 MOL1        0.0910
     36  H           2.6708    5.0489    0.1698 H         1 MOL1        0.0906
     37  H           0.3443    4.4828   -0.0304 H         1 MOL1        0.0906
     38  H          -0.3366    2.2788   -0.1363 H         1 MOL1        0.0910
     39  H          -4.0073    1.4455   -0.9205 H         1 MOL1        0.0917
     40  H          -6.2056    1.7837   -0.0585 H         1 MOL1        0.0906
     41  H          -7.3288   -0.0539    0.9686 H         1 MOL1        0.0915
     42  H          -6.2521   -2.1402    1.1099 H         1 MOL1        0.0995
@<TRIPOS>BOND
     1      1      2 1 
     2      2      3 1 
     3      2     20 1 
     4      3      4 1 
     5      4      5 2 
     6      5      1 1 
     7      5      6 1 
     8      6      7 ar
     9      7      8 ar
    10      8      9 ar
    11      9     10 ar
    12     10     11 ar
    13     11     12 ar
    14     12      7 ar
    15     12     13 ar
    16     13     14 ar
    17     14     15 ar
    18     15     16 ar
    19     16     17 ar
    20     17     18 ar
    21     18     19 ar
    22     19      6 ar
    23     19     14 ar
    24     20     21 ar
    25     21     22 ar
    26     22     23 ar
    27     23     24 ar
    28     24     25 ar
    29     25     20 ar
    30      1     27 1 
    31      1     28 1 
    32      2     26 1 
    33      3     29 1 
    34      8     30 1 
    35      9     31 1 
    36     10     32 1 
    37     11     33 1 
    38     13     34 1 
    39     15     35 1 
    40     16     36 1 
    41     17     37 1 
    42     18     38 1 
    43     21     39 1 
    44     22     40 1 
    45     23     41 1 
    46     24     42 1 
@<TRIPOS>SUBSTRUCTURE
     1 MOL1         1 MOLECULE          1 A
