# Molecule written by the XED library from Cresset
@<TRIPOS>MOLECULE
CHEMBL328468
    53     57      1
SMALL
USER_CHARGES
@<TRIPOS>ATOM
      1 O            8.3042   -2.7412    0.0856 O.2       1 MOL1       -0.4162
      2 C            7.4606   -1.8598    0.0324 C.2       1 MOL1        0.3045
      3 C            7.7130   -0.3603    0.1651 C.3       1 MOL1        0.0272
      4 C            6.3157    0.2355    0.0222 C.ar      1 MOL1       -0.0392
      5 C            5.8450    1.5200    0.0437 C.ar      1 MOL1       -0.0711
      6 C            4.4765    1.6624   -0.1252 C.ar      1 MOL1        0.0838
      7 O            3.8089    2.8254   -0.1404 O.3       1 MOL1       -0.0858
      8 N            2.4426    2.5055   -0.3338 N.ar      1 MOL1       -0.2643
      9 C            2.3512    1.2137   -0.4210 C.ar      1 MOL1        0.1083
     10 C            1.0116    0.5289   -0.6281 C.3       1 MOL1       -0.0333
     11 C           -0.0819    1.1518    0.2596 C.3       1 MOL1       -0.0806
     12 C           -1.4830    0.5528    0.0136 C.3       1 MOL1       -0.0563
     13 C           -2.4825    1.3714    0.8518 C.3       1 MOL1       -0.0743
     14 C           -3.9255    0.8273    0.7351 C.3       1 MOL1       -0.0462
     15 N           -4.0329   -0.6231    0.4498 N.3       1 MOL1       -0.2521
     16 C           -5.3075   -1.1634    0.9722 C.3       1 MOL1       -0.0032
     17 C           -6.5930   -0.6877    0.3020 C.ar      1 MOL1       -0.0509
     18 C           -7.0646    0.5967    0.4753 C.ar      1 MOL1       -0.0846
     19 C           -8.2389    0.9982   -0.1192 C.ar      1 MOL1       -0.0900
     20 C           -8.9560    0.1128   -0.8893 C.ar      1 MOL1       -0.0906
     21 C           -8.4939   -1.1708   -1.0657 C.ar      1 MOL1       -0.0900
     22 C           -7.3159   -1.5664   -0.4748 C.ar      1 MOL1       -0.0846
     23 C           -2.8966   -1.3456    1.0494 C.3       1 MOL1       -0.0462
     24 C           -1.5479   -0.9471    0.4033 C.3       1 MOL1       -0.0743
     25 C            3.6308    0.5890   -0.3003 C.ar      1 MOL1       -0.0007
     26 C            4.1150   -0.7168   -0.3236 C.ar      1 MOL1       -0.0743
     27 C            5.4747   -0.8447   -0.1575 C.ar      1 MOL1        0.0669
     28 N            6.1487   -2.0495   -0.1518 N.am      1 MOL1       -0.2163
     29  H           8.1748   -0.1018    1.2420 H         1 MOL1        0.0558
     30  H           8.4328    0.0297   -0.7121 H         1 MOL1        0.0558
     31  H           6.4502    2.3058    0.1729 H         1 MOL1        0.0926
     32  H           0.6889    0.6494   -1.7777 H         1 MOL1        0.0503
     33  H           1.1136   -0.6380   -0.3677 H         1 MOL1        0.0503
     34  H          -0.1202    2.3255    0.0133 H         1 MOL1        0.0465
     35  H           0.2151    1.0181    1.4145 H         1 MOL1        0.0465
     36  H          -1.7765    0.6870   -1.1435 H         1 MOL1        0.0488
     37  H          -2.1254    1.2890    1.9951 H         1 MOL1        0.0474
     38  H          -2.4628    2.5270    0.5278 H         1 MOL1        0.0474
     39  H          -4.5036    1.4093   -0.1409 H         1 MOL1        0.0568
     40  H          -4.4541    1.1029    1.7771 H         1 MOL1        0.0568
     41  H          -5.3832   -0.9357    2.1481 H         1 MOL1        0.0598
     42  H          -5.2840   -2.3587    0.8552 H         1 MOL1        0.0598
     43  H          -6.5511    1.2434    1.0383 H         1 MOL1        0.0908
     44  H          -8.5716    1.9324    0.0107 H         1 MOL1        0.0906
     45  H          -9.8115    0.4018   -1.3185 H         1 MOL1        0.0906
     46  H          -9.0151   -1.8172   -1.6227 H         1 MOL1        0.0906
     47  H          -6.9846   -2.5007   -0.6054 H         1 MOL1        0.0908
     48  H          -3.0265   -2.5308    0.9184 H         1 MOL1        0.0568
     49  H          -2.8618   -1.0954    2.2225 H         1 MOL1        0.0568
     50  H          -1.3734   -1.6027   -0.5872 H         1 MOL1        0.0474
     51  H          -0.6784   -1.2197    1.1838 H         1 MOL1        0.0474
     52  H           3.5161   -1.5076   -0.4523 H         1 MOL1        0.0923
     53  H           5.7698   -2.8369   -0.2566 H         1 MOL1        0.2055
@<TRIPOS>BOND
     1      1      2 2 
     2      2      3 1 
     3      3      4 1 
     4      4      5 ar
     5      5      6 ar
     6      6      7 ar
     7      7      8 ar
     8      8      9 ar
     9      9     10 1 
    10      9     25 ar
    11     10     11 1 
    12     11     12 1 
    13     12     13 1 
    14     13     14 1 
    15     14     15 1 
    16     15     16 1 
    17     15     23 1 
    18     16     17 1 
    19     17     18 ar
    20     18     19 ar
    21     19     20 ar
    22     20     21 ar
    23     21     22 ar
    24     22     17 ar
    25     23     24 1 
    26     24     12 1 
    27     25      6 ar
    28     25     26 ar
    29     26     27 ar
    30     27      4 ar
    31     27     28 1 
    32     28      2 am
    33      3     29 1 
    34      3     30 1 
    35      5     31 1 
    36     10     32 1 
    37     10     33 1 
    38     11     34 1 
    39     11     35 1 
    40     12     36 1 
    41     13     37 1 
    42     13     38 1 
    43     14     39 1 
    44     14     40 1 
    45     16     41 1 
    46     16     42 1 
    47     18     43 1 
    48     19     44 1 
    49     20     45 1 
    50     21     46 1 
    51     22     47 1 
    52     23     48 1 
    53     23     49 1 
    54     24     50 1 
    55     24     51 1 
    56     26     52 1 
    57     28     53 1 
@<TRIPOS>SUBSTRUCTURE
     1 MOL1         1 MOLECULE          1 A
