# Molecule written by the XED library from Cresset
@<TRIPOS>MOLECULE
CHEMBL375126
    29     31      1
SMALL
USER_CHARGES
@<TRIPOS>ATOM
      1 Cl           5.2986   -1.0645    1.1319 Cl        1 MOL1       -0.1016
      2 C            3.7895   -0.3376    0.6573 C.ar      1 MOL1        0.0668
      3 C            2.6153   -0.7665    1.2352 C.ar      1 MOL1       -0.0588
      4 C            1.4138   -0.2101    0.8581 C.ar      1 MOL1       -0.0835
      5 C            1.3730    0.7744   -0.1065 C.ar      1 MOL1       -0.0420
      6 C            0.0919    1.4259   -0.6151 C.3       1 MOL1        0.1193
      7 N           -1.2124    0.8574   -0.2192 N.am      1 MOL1       -0.2290
      8 C           -2.1694    1.6258    0.3480 C.2       1 MOL1        0.3709
      9 O           -2.0775    2.7984    0.6758 O.2       1 MOL1       -0.3643
     10 C           -3.3160    0.6760    0.4241 C.2       1 MOL1        0.2213
     11 O           -4.4257    0.9339    0.8537 O.2       1 MOL1       -0.3176
     12 C           -2.9673   -0.6380   -0.1003 C.ar      1 MOL1       -0.0069
     13 C           -3.6050   -1.8548   -0.2704 C.ar      1 MOL1       -0.0588
     14 C           -2.8691   -2.8743   -0.8297 C.ar      1 MOL1       -0.1177
     15 C           -1.5469   -2.6805   -1.2060 C.ar      1 MOL1       -0.0740
     16 C           -0.9269   -1.4597   -1.0354 C.ar      1 MOL1       -0.0998
     17 C           -1.6623   -0.4377   -0.4723 C.ar      1 MOL1        0.0952
     18 C            2.5523    1.2091   -0.6693 C.ar      1 MOL1       -0.0533
     19 C            3.7577    0.6595   -0.2949 C.ar      1 MOL1        0.0678
     20 Cl           5.2246    1.2265   -1.0401 Cl        1 MOL1       -0.1016
     21  H           2.6349   -1.4874    1.9280 H         1 MOL1        0.0939
     22  H           0.5647   -0.5298    1.2785 H         1 MOL1        0.0908
     23  H           0.1102    2.5725   -0.2618 H         1 MOL1        0.0624
     24  H           0.1201    1.4142   -1.8151 H         1 MOL1        0.0624
     25  H          -4.5580   -1.9878    0.0016 H         1 MOL1        0.0910
     26  H          -3.2933   -3.7694   -0.9671 H         1 MOL1        0.0906
     27  H          -1.0347   -3.4388   -1.6092 H         1 MOL1        0.0906
     28  H           0.0252   -1.3213   -1.3080 H         1 MOL1        0.0919
     29  H           2.5327    1.9287   -1.3633 H         1 MOL1        0.0941
@<TRIPOS>BOND
     1      1      2 1 
     2      2      3 ar
     3      3      4 ar
     4      4      5 ar
     5      5      6 1 
     6      5     18 ar
     7      6      7 1 
     8      7      8 am
     9      8      9 2 
    10      8     10 1 
    11     10     11 2 
    12     10     12 1 
    13     12     13 ar
    14     13     14 ar
    15     14     15 ar
    16     15     16 ar
    17     16     17 ar
    18     17      7 1 
    19     17     12 ar
    20     18     19 ar
    21     19      2 ar
    22     19     20 1 
    23      3     21 1 
    24      4     22 1 
    25      6     23 1 
    26      6     24 1 
    27     13     25 1 
    28     14     26 1 
    29     15     27 1 
    30     16     28 1 
    31     18     29 1 
@<TRIPOS>SUBSTRUCTURE
     1 MOL1         1 MOLECULE          1 A
