# Molecule written by the XED library from Cresset
@<TRIPOS>MOLECULE
CHEMBL420625
    50     53      1
SMALL
USER_CHARGES
@<TRIPOS>ATOM
      1 N            8.4497   -1.1827    0.1717 N.pl3     1 MOL1       -0.4783
      2 C            7.1212   -0.8054    0.0007 C.ar      1 MOL1        0.0505
      3 C            6.1374   -1.7845   -0.1927 C.ar      1 MOL1       -0.1217
      4 C            4.8220   -1.4479   -0.3598 C.ar      1 MOL1       -0.0535
      5 C            4.4872   -0.0978   -0.3322 C.ar      1 MOL1       -0.0220
      6 C            3.2959    0.6702   -0.4546 C.ar      1 MOL1        0.0984
      7 C            1.8914    0.1391   -0.6700 C.3       1 MOL1       -0.0334
      8 C            0.8843    0.8445    0.2552 C.3       1 MOL1       -0.0806
      9 C           -0.5693    0.3810    0.0262 C.3       1 MOL1       -0.0563
     10 C           -1.4823    1.2675    0.8933 C.3       1 MOL1       -0.0743
     11 C           -2.9687    0.8576    0.7733 C.3       1 MOL1       -0.0462
     12 N           -3.2062   -0.5711    0.4609 N.3       1 MOL1       -0.2521
     13 C           -4.5208   -1.0073    0.9812 C.3       1 MOL1       -0.0032
     14 C           -5.7607   -0.4263    0.3076 C.ar      1 MOL1       -0.0509
     15 C           -6.1258    0.8910    0.4864 C.ar      1 MOL1       -0.0846
     16 C           -7.2575    1.3914   -0.1160 C.ar      1 MOL1       -0.0900
     17 C           -8.0382    0.5735   -0.8992 C.ar      1 MOL1       -0.0906
     18 C           -7.6837   -0.7432   -1.0791 C.ar      1 MOL1       -0.0900
     19 C           -6.5486   -1.2388   -0.4788 C.ar      1 MOL1       -0.0846
     20 C           -2.1361   -1.4051    1.0379 C.3       1 MOL1       -0.0462
     21 C           -0.7601   -1.1142    0.3912 C.3       1 MOL1       -0.0743
     22 N            3.5397    1.9433   -0.3553 N.ar      1 MOL1       -0.2832
     23 O            4.9343    2.0952   -0.1521 O.3       1 MOL1       -0.0857
     24 C            5.4524    0.8598   -0.1451 C.ar      1 MOL1        0.0978
     25 C            6.7799    0.5335    0.0257 C.ar      1 MOL1       -0.1034
     26  H           8.6795   -2.0127   -0.0122 H         1 MOL1        0.2750
     27  H           9.0735   -0.5618    0.1294 H         1 MOL1        0.2750
     28  H           6.4024   -2.7485   -0.2085 H         1 MOL1        0.0917
     29  H           4.1232   -2.1501   -0.4969 H         1 MOL1        0.0910
     30  H           1.8740   -1.0396   -0.4450 H         1 MOL1        0.0503
     31  H           1.5736    0.3269   -1.8118 H         1 MOL1        0.0503
     32  H           0.9552    2.0215    0.0325 H         1 MOL1        0.0465
     33  H           1.1943    0.6569    1.3992 H         1 MOL1        0.0465
     34  H          -0.8665    0.5613   -1.1227 H         1 MOL1        0.0488
     35  H          -1.1258    1.1281    2.0314 H         1 MOL1        0.0474
     36  H          -1.3611    2.4229    0.5914 H         1 MOL1        0.0474
     37  H          -3.4767    1.1682    1.8161 H         1 MOL1        0.0568
     38  H          -3.4911    1.5002   -0.0962 H         1 MOL1        0.0568
     39  H          -4.5834   -0.7839    2.1587 H         1 MOL1        0.0598
     40  H          -4.5987   -2.1992    0.8586 H         1 MOL1        0.0598
     41  H          -5.5653    1.4893    1.0581 H         1 MOL1        0.0908
     42  H          -7.5133    2.3490    0.0169 H         1 MOL1        0.0906
     43  H          -8.8622    0.9350   -1.3357 H         1 MOL1        0.0906
     44  H          -8.2511   -1.3407   -1.6458 H         1 MOL1        0.0906
     45  H          -6.2970   -2.1973   -0.6114 H         1 MOL1        0.0908
     46  H          -2.0751   -1.1862    2.2168 H         1 MOL1        0.0568
     47  H          -2.3713   -2.5718    0.8817 H         1 MOL1        0.0568
     48  H          -0.6455   -1.7645   -0.6121 H         1 MOL1        0.0474
     49  H           0.0853   -1.4746    1.1631 H         1 MOL1        0.0474
     50  H           7.4728    1.2414    0.1631 H         1 MOL1        0.0935
@<TRIPOS>BOND
     1      1      2 1 
     2      2      3 ar
     3      3      4 ar
     4      4      5 ar
     5      5      6 ar
     6      6      7 1 
     7      6     22 ar
     8      7      8 1 
     9      8      9 1 
    10      9     10 1 
    11     10     11 1 
    12     11     12 1 
    13     12     13 1 
    14     12     20 1 
    15     13     14 1 
    16     14     15 ar
    17     15     16 ar
    18     16     17 ar
    19     17     18 ar
    20     18     19 ar
    21     19     14 ar
    22     20     21 1 
    23     21      9 1 
    24     22     23 ar
    25     23     24 ar
    26     24      5 ar
    27     24     25 ar
    28     25      2 ar
    29      1     26 1 
    30      1     27 1 
    31      3     28 1 
    32      4     29 1 
    33      7     30 1 
    34      7     31 1 
    35      8     32 1 
    36      8     33 1 
    37      9     34 1 
    38     10     35 1 
    39     10     36 1 
    40     11     37 1 
    41     11     38 1 
    42     13     39 1 
    43     13     40 1 
    44     15     41 1 
    45     16     42 1 
    46     17     43 1 
    47     18     44 1 
    48     19     45 1 
    49     20     46 1 
    50     20     47 1 
    51     21     48 1 
    52     21     49 1 
    53     25     50 1 
@<TRIPOS>SUBSTRUCTURE
     1 MOL1         1 MOLECULE          1 A
