# Molecule written by the XED library from Cresset
@<TRIPOS>MOLECULE
CHEMBL1081810
    44     47      1
SMALL
USER_CHARGES
@<TRIPOS>ATOM
      1 C           -4.1008   -1.1029    0.3515 C.3       1 MOL1        0.0929
      2 C           -2.6124   -1.3260    0.0886 C.ar      1 MOL1       -0.0443
      3 C           -2.2282   -2.5552   -0.4730 C.ar      1 MOL1       -0.0834
      4 C           -0.9271   -2.8378   -0.7205 C.ar      1 MOL1       -0.0808
      5 C            0.0663   -1.8920   -0.4160 C.ar      1 MOL1       -0.0213
      6 C            1.4254   -2.1521   -0.6638 C.ar      1 MOL1       -0.0808
      7 C            2.3594   -1.2202   -0.3575 C.ar      1 MOL1       -0.0834
      8 C            1.9916    0.0124    0.2104 C.ar      1 MOL1       -0.0443
      9 C            2.9859    1.1043    0.5916 C.3       1 MOL1        0.0929
     10 N            4.4094    0.8814    0.3402 N.pl3     1 MOL1       -0.1162
     11 C            5.0571   -0.1541    0.9380 C.ar      1 MOL1       -0.0203
     12 C            6.4013   -0.3215    0.7657 C.ar      1 MOL1       -0.1015
     13 C            7.1044    0.5698   -0.0207 C.ar      1 MOL1       -0.1668
     14 C            6.4372    1.6130   -0.6317 C.ar      1 MOL1       -0.1015
     15 C            5.0917    1.7530   -0.4483 C.ar      1 MOL1       -0.0203
     16 C            0.6851    0.2788    0.4541 C.ar      1 MOL1       -0.0752
     17 C           -0.3073   -0.6676    0.1469 C.ar      1 MOL1       -0.0202
     18 C           -1.6659   -0.4049    0.3991 C.ar      1 MOL1       -0.0752
     19 N           -4.7087    0.2138    0.1409 N.pl3     1 MOL1       -0.1162
     20 C           -4.1270    1.1521   -0.6542 C.ar      1 MOL1       -0.0203
     21 C           -4.7246    2.3646   -0.8473 C.ar      1 MOL1       -0.1015
     22 C           -5.9359    2.6332   -0.2413 C.ar      1 MOL1       -0.1668
     23 C           -6.5280    1.6704    0.5517 C.ar      1 MOL1       -0.1015
     24 C           -5.9049    0.4691    0.7325 C.ar      1 MOL1       -0.0203
     25  H          -4.2854   -1.4221    1.4941 H         1 MOL1        0.0605
     26  H          -4.7234   -1.8672   -0.3342 H         1 MOL1        0.0605
     27  H          -2.9282   -3.2350   -0.6916 H         1 MOL1        0.0908
     28  H          -0.6734   -3.7190   -1.1193 H         1 MOL1        0.0910
     29  H           1.7025   -3.0251   -1.0652 H         1 MOL1        0.0910
     30  H           3.3244   -1.4128   -0.5352 H         1 MOL1        0.0908
     31  H           2.6280    2.1038    0.0289 H         1 MOL1        0.0605
     32  H           2.8670    1.3025    1.7691 H         1 MOL1        0.0605
     33  H           4.5460   -0.7965    1.5092 H         1 MOL1        0.0980
     34  H           6.8744   -1.0833    1.2082 H         1 MOL1        0.0913
     35  H           8.0901    0.4597   -0.1483 H         1 MOL1        0.0906
     36  H           6.9367    2.2628   -1.2046 H         1 MOL1        0.0913
     37  H           4.6095    2.5088   -0.8909 H         1 MOL1        0.0980
     38  H           0.4253    1.1563    0.8572 H         1 MOL1        0.0912
     39  H          -1.9360    0.4676    0.8063 H         1 MOL1        0.0912
     40  H          -3.2529    0.9549   -1.0976 H         1 MOL1        0.0980
     41  H          -4.2886    3.0537   -1.4262 H         1 MOL1        0.0913
     42  H          -6.3825    3.5175   -0.3778 H         1 MOL1        0.0906
     43  H          -7.4080    1.8517    0.9906 H         1 MOL1        0.0913
     44  H          -6.3336   -0.2299    1.3050 H         1 MOL1        0.0980
@<TRIPOS>BOND
     1      1      2 1 
     2      1     19 1 
     3      2      3 ar
     4      3      4 ar
     5      4      5 ar
     6      5      6 ar
     7      6      7 ar
     8      7      8 ar
     9      8      9 1 
    10      8     16 ar
    11      9     10 1 
    12     10     11 ar
    13     11     12 ar
    14     12     13 ar
    15     13     14 ar
    16     14     15 ar
    17     15     10 ar
    18     16     17 ar
    19     17      5 ar
    20     17     18 ar
    21     18      2 ar
    22     19     20 ar
    23     20     21 ar
    24     21     22 ar
    25     22     23 ar
    26     23     24 ar
    27     24     19 ar
    28      1     25 1 
    29      1     26 1 
    30      3     27 1 
    31      4     28 1 
    32      6     29 1 
    33      7     30 1 
    34      9     31 1 
    35      9     32 1 
    36     11     33 1 
    37     12     34 1 
    38     13     35 1 
    39     14     36 1 
    40     15     37 1 
    41     16     38 1 
    42     18     39 1 
    43     20     40 1 
    44     21     41 1 
    45     22     42 1 
    46     23     43 1 
    47     24     44 1 
@<TRIPOS>SUBSTRUCTURE
     1 MOL1         1 MOLECULE          1 A
