# Molecule written by the XED library from Cresset
@<TRIPOS>MOLECULE
CHEMBL465028
    52     55      1
SMALL
USER_CHARGES
@<TRIPOS>ATOM
      1 C            5.7696   -3.6605    0.0775 C.3       1 MOL1       -0.0471
      2 O            6.1978   -2.2839    0.0556 O.3       1 MOL1       -0.1993
      3 C            5.2745   -1.3191   -0.0199 C.ar      1 MOL1        0.0824
      4 C            3.9150   -1.6051   -0.0762 C.ar      1 MOL1       -0.0742
      5 C            3.0062   -0.5827   -0.1485 C.ar      1 MOL1       -0.0420
      6 C            1.4877   -0.6462   -0.2284 C.3       1 MOL1       -0.0041
      7 C            1.0379    0.8080   -0.1847 C.2       1 MOL1       -0.0323
      8 C           -0.1230    1.4697   -0.0032 C.2       1 MOL1       -0.0234
      9 C           -1.4401    0.8153    0.1459 C.ar      1 MOL1       -0.0260
     10 C           -2.4965    1.5802    0.6136 C.ar      1 MOL1       -0.0703
     11 C           -3.7388    1.0230    0.7912 C.ar      1 MOL1       -0.0831
     12 C           -3.9576   -0.3058    0.4959 C.ar      1 MOL1       -0.0406
     13 C           -5.3247   -0.9422    0.7128 C.3       1 MOL1       -0.0025
     14 N           -6.3763   -0.5375   -0.2406 N.3       1 MOL1       -0.2522
     15 C           -7.5199   -1.4479   -0.1591 C.3       1 MOL1       -0.0465
     16 C           -8.6057   -0.6446   -0.8901 C.3       1 MOL1       -0.0748
     17 C           -8.2365    0.8352   -0.6626 C.3       1 MOL1       -0.0748
     18 C           -6.8652    0.8195    0.0376 C.3       1 MOL1       -0.0465
     19 C           -2.9143   -1.0696    0.0167 C.ar      1 MOL1       -0.0831
     20 C           -1.6675   -0.5190   -0.1556 C.ar      1 MOL1       -0.0703
     21 C            2.2618    1.5709   -0.2204 C.2       1 MOL1        0.1921
     22 O            2.3546    2.7906   -0.2675 O.2       1 MOL1       -0.3952
     23 C            3.4411    0.7206   -0.1654 C.ar      1 MOL1       -0.0045
     24 C            4.7899    1.0345   -0.1150 C.ar      1 MOL1       -0.0552
     25 C            5.7113    0.0092   -0.0410 C.ar      1 MOL1        0.0721
     26 O            7.0350    0.2449    0.0148 O.3       1 MOL1       -0.2025
     27 C            7.4997    1.6097    0.0075 C.3       1 MOL1       -0.0471
     28  H           5.0662   -3.8493    1.0313 H         1 MOL1        0.0618
     29  H           6.7317   -4.3743    0.1473 H         1 MOL1        0.0618
     30  H           5.1632   -3.9098   -0.9276 H         1 MOL1        0.0618
     31  H           3.5964   -2.5523   -0.0643 H         1 MOL1        0.0926
     32  H           1.1832   -1.1318   -1.2827 H         1 MOL1        0.0524
     33  H           1.0121   -1.2757    0.6758 H         1 MOL1        0.0524
     34  H          -0.0867    2.4582    0.0533 H         1 MOL1        0.0912
     35  H          -2.3510    2.5454    0.8307 H         1 MOL1        0.0910
     36  H          -4.4898    1.5846    1.1382 H         1 MOL1        0.0908
     37  H          -5.6802   -0.7337    1.8397 H         1 MOL1        0.0598
     38  H          -5.1820   -2.1303    0.6057 H         1 MOL1        0.0598
     39  H          -7.3003   -2.5049   -0.6830 H         1 MOL1        0.0568
     40  H          -7.8517   -1.5975    0.9849 H         1 MOL1        0.0568
     41  H          -9.6944   -0.9062   -0.4577 H         1 MOL1        0.0471
     42  H          -8.5576   -0.9035   -2.0614 H         1 MOL1        0.0471
     43  H          -8.1507    1.4118   -1.7120 H         1 MOL1        0.0471
     44  H          -9.0568    1.3787    0.0259 H         1 MOL1        0.0471
     45  H          -7.0366    0.9933    1.2134 H         1 MOL1        0.0568
     46  H          -6.1281    1.6575   -0.4033 H         1 MOL1        0.0568
     47  H          -3.0649   -2.0340   -0.2012 H         1 MOL1        0.0908
     48  H          -0.9208   -1.0868   -0.4994 H         1 MOL1        0.0910
     49  H           5.0867    1.9891   -0.1275 H         1 MOL1        0.0928
     50  H           8.6981    1.6226    0.0699 H         1 MOL1        0.0618
     51  H           7.1475    2.1487   -1.0050 H         1 MOL1        0.0618
     52  H           7.0451    2.1938    0.9521 H         1 MOL1        0.0618
@<TRIPOS>BOND
     1      1      2 1 
     2      2      3 1 
     3      3      4 ar
     4      4      5 ar
     5      5      6 1 
     6      6      7 1 
     7      7      8 2 
     8      7     21 1 
     9      8      9 1 
    10      9     10 ar
    11     10     11 ar
    12     11     12 ar
    13     12     13 1 
    14     12     19 ar
    15     13     14 1 
    16     14     15 1 
    17     15     16 1 
    18     16     17 1 
    19     17     18 1 
    20     18     14 1 
    21     19     20 ar
    22     20      9 ar
    23     21     22 2 
    24     21     23 1 
    25     23      5 ar
    26     23     24 ar
    27     24     25 ar
    28     25      3 ar
    29     25     26 1 
    30     26     27 1 
    31      1     28 1 
    32      1     29 1 
    33      1     30 1 
    34      4     31 1 
    35      6     32 1 
    36      6     33 1 
    37      8     34 1 
    38     10     35 1 
    39     11     36 1 
    40     13     37 1 
    41     13     38 1 
    42     15     39 1 
    43     15     40 1 
    44     16     41 1 
    45     16     42 1 
    46     17     43 1 
    47     17     44 1 
    48     18     45 1 
    49     18     46 1 
    50     19     47 1 
    51     20     48 1 
    52     24     49 1 
    53     27     50 1 
    54     27     51 1 
    55     27     52 1 
@<TRIPOS>SUBSTRUCTURE
     1 MOL1         1 MOLECULE          1 A
