# Molecule written by the XED library from Cresset
@<TRIPOS>MOLECULE
CHEMBL462872
    48     50      1
SMALL
USER_CHARGES
@<TRIPOS>ATOM
      1 C            4.0695   -3.9292   -0.2114 C.3       1 MOL1       -0.0471
      2 O            4.7106   -2.6445   -0.0850 O.3       1 MOL1       -0.1993
      3 C            3.9534   -1.5429   -0.0535 C.ar      1 MOL1        0.0824
      4 C            2.5666   -1.5977   -0.1403 C.ar      1 MOL1       -0.0742
      5 C            1.8341   -0.4401   -0.0949 C.ar      1 MOL1       -0.0420
      6 C            0.3265   -0.2434   -0.1794 C.3       1 MOL1       -0.0041
      7 C            0.1179    1.2577   -0.0282 C.2       1 MOL1       -0.0323
      8 C           -0.9264    2.1077    0.0539 C.2       1 MOL1       -0.0234
      9 C           -2.3486    1.7124   -0.0496 C.ar      1 MOL1       -0.0255
     10 C           -3.2962    2.7133    0.0938 C.ar      1 MOL1       -0.0708
     11 C           -4.6353    2.4317   -0.0124 C.ar      1 MOL1       -0.0886
     12 C           -5.0507    1.1438   -0.2658 C.ar      1 MOL1       -0.0739
     13 C           -4.1251    0.1306   -0.4055 C.ar      1 MOL1       -0.0490
     14 C           -4.5667   -1.2962   -0.6995 C.3       1 MOL1       -0.0040
     15 N           -5.1844   -1.9456    0.4742 N.3       1 MOL1       -0.2617
     16 C           -4.6662   -3.3109    0.6362 C.3       1 MOL1       -0.0710
     17 C           -6.6469   -1.9878    0.3247 C.3       1 MOL1       -0.0710
     18 C           -2.7842    0.4174   -0.2946 C.ar      1 MOL1       -0.0652
     19 C            1.4502    1.8013    0.0816 C.2       1 MOL1        0.1921
     20 O            1.7417    2.9842    0.2023 O.2       1 MOL1       -0.3952
     21 C            2.4738    0.7682    0.0410 C.ar      1 MOL1       -0.0045
     22 C            3.8547    0.8530    0.1183 C.ar      1 MOL1       -0.0552
     23 C            4.5983   -0.3086    0.0706 C.ar      1 MOL1        0.0721
     24 O            5.9421   -0.2975    0.1402 O.3       1 MOL1       -0.2025
     25 C            6.6245    0.9688    0.2384 C.3       1 MOL1       -0.0471
     26  H           3.4501   -3.9679   -1.2384 H         1 MOL1        0.0618
     27  H           3.3266   -4.1037    0.7145 H         1 MOL1        0.0618
     28  H           4.9039   -4.7916   -0.2157 H         1 MOL1        0.0618
     29  H           2.1010   -2.4773   -0.2350 H         1 MOL1        0.0926
     30  H          -0.0617   -0.6049   -1.2559 H         1 MOL1        0.0524
     31  H          -0.2308   -0.8404    0.6997 H         1 MOL1        0.0524
     32  H          -0.7237    3.0691    0.1852 H         1 MOL1        0.0912
     33  H          -3.0008    3.6518    0.2727 H         1 MOL1        0.0910
     34  H          -5.3093    3.1634    0.0902 H         1 MOL1        0.0906
     35  H          -6.0263    0.9468   -0.3506 H         1 MOL1        0.0908
     36  H          -5.3234   -1.2676   -1.6317 H         1 MOL1        0.0598
     37  H          -3.6002   -1.9115   -1.0617 H         1 MOL1        0.0598
     38  H          -5.2172   -3.8543    1.5540 H         1 MOL1        0.0543
     39  H          -4.8633   -3.9356   -0.3694 H         1 MOL1        0.0543
     40  H          -3.4889   -3.2806    0.8674 H         1 MOL1        0.0543
     41  H          -7.1436   -2.4043    1.3345 H         1 MOL1        0.0543
     42  H          -6.9486   -2.7114   -0.5848 H         1 MOL1        0.0543
     43  H          -7.0764   -0.8896    0.1095 H         1 MOL1        0.0543
     44  H          -2.1179   -0.3187   -0.4004 H         1 MOL1        0.0912
     45  H           4.3013    1.7427    0.2077 H         1 MOL1        0.0928
     46  H           7.8090    0.7798    0.2721 H         1 MOL1        0.0618
     47  H           6.2839    1.5339    1.2407 H         1 MOL1        0.0618
     48  H           6.3579    1.6471   -0.7151 H         1 MOL1        0.0618
@<TRIPOS>BOND
     1      1      2 1 
     2      2      3 1 
     3      3      4 ar
     4      4      5 ar
     5      5      6 1 
     6      6      7 1 
     7      7      8 2 
     8      7     19 1 
     9      8      9 1 
    10      9     10 ar
    11     10     11 ar
    12     11     12 ar
    13     12     13 ar
    14     13     14 1 
    15     13     18 ar
    16     14     15 1 
    17     15     16 1 
    18     15     17 1 
    19     18      9 ar
    20     19     20 2 
    21     19     21 1 
    22     21      5 ar
    23     21     22 ar
    24     22     23 ar
    25     23      3 ar
    26     23     24 1 
    27     24     25 1 
    28      1     26 1 
    29      1     27 1 
    30      1     28 1 
    31      4     29 1 
    32      6     30 1 
    33      6     31 1 
    34      8     32 1 
    35     10     33 1 
    36     11     34 1 
    37     12     35 1 
    38     14     36 1 
    39     14     37 1 
    40     16     38 1 
    41     16     39 1 
    42     16     40 1 
    43     17     41 1 
    44     17     42 1 
    45     17     43 1 
    46     18     44 1 
    47     22     45 1 
    48     25     46 1 
    49     25     47 1 
    50     25     48 1 
@<TRIPOS>SUBSTRUCTURE
     1 MOL1         1 MOLECULE          1 A
