# Molecule written by the XED library from Cresset
@<TRIPOS>MOLECULE
CHEMBL1720480
    53     56      1
SMALL
USER_CHARGES
@<TRIPOS>ATOM
      1 O           -1.1967    1.5799    0.7505 O.2       1 MOL1       -0.4200
      2 C           -1.3707    0.4230    0.3714 C.2       1 MOL1        0.3045
      3 N           -0.3652   -0.3966   -0.0104 N.am      1 MOL1       -0.3936
      4 C            1.0446    0.0310    0.0413 C.3       1 MOL1        0.0961
      5 C            1.8575   -1.0932   -0.6293 C.3       1 MOL1       -0.0551
      6 C            3.3689   -0.7691   -0.6759 C.3       1 MOL1       -0.0429
      7 N            3.6958    0.6696   -0.5569 N.3       1 MOL1       -0.2519
      8 C            5.0506    0.9420   -1.0795 C.3       1 MOL1       -0.0032
      9 C            6.2080    0.2311   -0.3914 C.ar      1 MOL1       -0.0509
     10 C            6.5624   -1.0551   -0.7397 C.ar      1 MOL1       -0.0846
     11 C            7.6147   -1.6830   -0.1150 C.ar      1 MOL1       -0.0900
     12 C            8.3240   -1.0243    0.8623 C.ar      1 MOL1       -0.0906
     13 C            7.9798    0.2617    1.2106 C.ar      1 MOL1       -0.0900
     14 C            6.9240    0.8855    0.5861 C.ar      1 MOL1       -0.0846
     15 C            2.7096    1.4803   -1.2950 C.3       1 MOL1       -0.0429
     16 C            1.2888    1.3701   -0.6932 C.3       1 MOL1       -0.0551
     17 C           -2.7724   -0.0659    0.3350 C.ar      1 MOL1       -0.0066
     18 C           -3.0835   -1.4103    0.1860 C.ar      1 MOL1       -0.0711
     19 C           -4.3880   -1.8319    0.1569 C.ar      1 MOL1       -0.0788
     20 C           -5.4305   -0.9316    0.2613 C.ar      1 MOL1        0.0816
     21 O           -6.6761   -1.4191    0.2532 O.3       1 MOL1       -0.1957
     22 C           -7.6118   -0.9245   -0.7305 C.3       1 MOL1       -0.0218
     23 C           -8.1936    0.4506   -0.3668 C.3       1 MOL1       -0.0447
     24 C           -7.0930    1.5203   -0.4492 C.3       1 MOL1       -0.0218
     25 O           -6.0887    1.3669    0.5791 O.3       1 MOL1       -0.1987
     26 C           -5.1388    0.4298    0.4176 C.ar      1 MOL1        0.0723
     27 C           -3.8240    0.8344    0.4590 C.ar      1 MOL1       -0.0534
     28  H          -0.5503   -1.2074   -0.2961 H         1 MOL1        0.2041
     29  H           1.3913    0.1224    1.1864 H         1 MOL1        0.0615
     30  H           1.4293   -1.1974   -1.7462 H         1 MOL1        0.0487
     31  H           1.6770   -2.1333   -0.0573 H         1 MOL1        0.0487
     32  H           3.9157   -1.3274    0.2357 H         1 MOL1        0.0568
     33  H           3.8071   -1.2231   -1.6997 H         1 MOL1        0.0568
     34  H           5.0745    0.6891   -2.2508 H         1 MOL1        0.0598
     35  H           5.2585    2.1186   -0.9694 H         1 MOL1        0.0598
     36  H           6.0521   -1.5393   -1.4503 H         1 MOL1        0.0908
     37  H           7.8652   -2.6164   -0.3739 H         1 MOL1        0.0906
     38  H           9.0904   -1.4794    1.3157 H         1 MOL1        0.0906
     39  H           8.4967    0.7430    1.9203 H         1 MOL1        0.0906
     40  H           6.6784    1.8221    0.8398 H         1 MOL1        0.0908
     41  H           2.6894    1.0997   -2.4328 H         1 MOL1        0.0568
     42  H           3.0182    2.6397   -1.2894 H         1 MOL1        0.0568
     43  H           1.1190    2.2639    0.0912 H         1 MOL1        0.0487
     44  H           0.4730    1.4784   -1.5682 H         1 MOL1        0.0487
     45  H          -2.3536   -2.0861    0.1051 H         1 MOL1        0.0910
     46  H          -4.5842   -2.8081    0.0605 H         1 MOL1        0.0924
     47  H          -7.1025   -0.8775   -1.8163 H         1 MOL1        0.0643
     48  H          -8.5272   -1.6997   -0.7768 H         1 MOL1        0.0643
     49  H          -8.6510    0.4154    0.7412 H         1 MOL1        0.0498
     50  H          -9.0668    0.7224   -1.1435 H         1 MOL1        0.0498
     51  H          -6.5945    1.4996   -1.5410 H         1 MOL1        0.0643
     52  H          -7.6193    2.5870   -0.2886 H         1 MOL1        0.0643
     53  H          -3.6155    1.8055    0.5823 H         1 MOL1        0.0928
@<TRIPOS>BOND
     1      1      2 2 
     2      2      3 am
     3      2     17 1 
     4      3      4 1 
     5      4      5 1 
     6      5      6 1 
     7      6      7 1 
     8      7      8 1 
     9      7     15 1 
    10      8      9 1 
    11      9     10 ar
    12     10     11 ar
    13     11     12 ar
    14     12     13 ar
    15     13     14 ar
    16     14      9 ar
    17     15     16 1 
    18     16      4 1 
    19     17     18 ar
    20     18     19 ar
    21     19     20 ar
    22     20     21 1 
    23     21     22 1 
    24     22     23 1 
    25     23     24 1 
    26     24     25 1 
    27     25     26 1 
    28     26     20 ar
    29     26     27 ar
    30     27     17 ar
    31      3     28 1 
    32      4     29 1 
    33      5     30 1 
    34      5     31 1 
    35      6     32 1 
    36      6     33 1 
    37      8     34 1 
    38      8     35 1 
    39     10     36 1 
    40     11     37 1 
    41     12     38 1 
    42     13     39 1 
    43     14     40 1 
    44     15     41 1 
    45     15     42 1 
    46     16     43 1 
    47     16     44 1 
    48     18     45 1 
    49     19     46 1 
    50     22     47 1 
    51     22     48 1 
    52     23     49 1 
    53     23     50 1 
    54     24     51 1 
    55     24     52 1 
    56     27     53 1 
@<TRIPOS>SUBSTRUCTURE
     1 MOL1         1 MOLECULE          1 A
