# Molecule written by the XED library from Cresset
@<TRIPOS>MOLECULE
CHEMBL92463
    49     52      1
SMALL
USER_CHARGES
@<TRIPOS>ATOM
      1 O            8.6346   -0.9481   -0.1350 O.3       1 MOL1       -0.3803
      2 C            7.3046   -0.6792   -0.0821 C.ar      1 MOL1        0.0738
      3 C            6.3887   -1.7291    0.0381 C.ar      1 MOL1       -0.0924
      4 C            5.0424   -1.4899    0.0978 C.ar      1 MOL1       -0.0523
      5 C            4.6147   -0.1683    0.0347 C.ar      1 MOL1       -0.0104
      6 C            3.3635    0.5083    0.0692 C.ar      1 MOL1        0.1048
      7 C            2.0058   -0.1509    0.2251 C.3       1 MOL1       -0.0333
      8 C            0.8215    0.6493   -0.3566 C.3       1 MOL1       -0.0806
      9 C           -0.5226    0.2118    0.2617 C.3       1 MOL1       -0.0563
     10 C           -1.6468    1.1578   -0.1995 C.3       1 MOL1       -0.0743
     11 C           -2.9659    0.7325    0.4780 C.3       1 MOL1       -0.0462
     12 N           -3.3404   -0.6571    0.1407 N.3       1 MOL1       -0.2521
     13 C           -4.5865   -1.0387    0.8350 C.3       1 MOL1       -0.0032
     14 C           -5.8584   -0.3756    0.3239 C.ar      1 MOL1       -0.0509
     15 C           -6.3211    0.7887    0.8970 C.ar      1 MOL1       -0.0846
     16 C           -7.4783    1.3766    0.4393 C.ar      1 MOL1       -0.0900
     17 C           -8.1814    0.7991   -0.5929 C.ar      1 MOL1       -0.0906
     18 C           -7.7249   -0.3647   -1.1674 C.ar      1 MOL1       -0.0900
     19 C           -6.5660   -0.9492   -0.7100 C.ar      1 MOL1       -0.0846
     20 C           -2.2589   -1.5831    0.5271 C.3       1 MOL1       -0.0462
     21 C           -0.9138   -1.2251   -0.1367 C.3       1 MOL1       -0.0743
     22 N            3.5136    1.7955   -0.0246 N.ar      1 MOL1       -0.2731
     23 O            4.9050    2.0507   -0.1315 O.3       1 MOL1       -0.0836
     24 C            5.5154    0.8583   -0.0870 C.ar      1 MOL1        0.1039
     25 C            6.8743    0.6294   -0.1471 C.ar      1 MOL1       -0.0724
     26  H           8.8146   -1.9364   -0.0778 H         1 MOL1        0.3295
     27  H           6.7231   -2.6705    0.0822 H         1 MOL1        0.0924
     28  H           4.3878   -2.2408    0.1854 H         1 MOL1        0.0910
     29  H           2.0560   -1.2196   -0.3177 H         1 MOL1        0.0503
     30  H           1.8291   -0.3240    1.3990 H         1 MOL1        0.0503
     31  H           0.9790    1.8115   -0.1005 H         1 MOL1        0.0465
     32  H           0.7882    0.5150   -1.5486 H         1 MOL1        0.0465
     33  H          -0.4558    0.2814    1.4576 H         1 MOL1        0.0488
     34  H          -1.7658    1.0903   -1.3918 H         1 MOL1        0.0474
     35  H          -1.3853    2.2860    0.1154 H         1 MOL1        0.0474
     36  H          -2.8250    0.8400    1.6648 H         1 MOL1        0.0568
     37  H          -3.8318    1.4784    0.1145 H         1 MOL1        0.0568
     38  H          -4.7561   -2.2206    0.7054 H         1 MOL1        0.0598
     39  H          -4.4686   -0.8337    2.0118 H         1 MOL1        0.0598
     40  H          -5.8133    1.2089    1.6490 H         1 MOL1        0.0908
     41  H          -7.8086    2.2228    0.8575 H         1 MOL1        0.0906
     42  H          -9.0235    1.2244   -0.9248 H         1 MOL1        0.0906
     43  H          -8.2357   -0.7865   -1.9166 H         1 MOL1        0.0906
     44  H          -6.2376   -1.7961   -1.1281 H         1 MOL1        0.0908
     45  H          -2.1232   -1.5444    1.7187 H         1 MOL1        0.0568
     46  H          -2.5410   -2.7029    0.2008 H         1 MOL1        0.0568
     47  H          -1.0199   -1.2972   -1.3299 H         1 MOL1        0.0474
     48  H          -0.0841   -2.0029    0.2440 H         1 MOL1        0.0474
     49  H           7.5238    1.3848   -0.2334 H         1 MOL1        0.0942
@<TRIPOS>BOND
     1      1      2 1 
     2      2      3 ar
     3      3      4 ar
     4      4      5 ar
     5      5      6 ar
     6      6      7 1 
     7      6     22 ar
     8      7      8 1 
     9      8      9 1 
    10      9     10 1 
    11     10     11 1 
    12     11     12 1 
    13     12     13 1 
    14     12     20 1 
    15     13     14 1 
    16     14     15 ar
    17     15     16 ar
    18     16     17 ar
    19     17     18 ar
    20     18     19 ar
    21     19     14 ar
    22     20     21 1 
    23     21      9 1 
    24     22     23 ar
    25     23     24 ar
    26     24      5 ar
    27     24     25 ar
    28     25      2 ar
    29      1     26 1 
    30      3     27 1 
    31      4     28 1 
    32      7     29 1 
    33      7     30 1 
    34      8     31 1 
    35      8     32 1 
    36      9     33 1 
    37     10     34 1 
    38     10     35 1 
    39     11     36 1 
    40     11     37 1 
    41     13     38 1 
    42     13     39 1 
    43     15     40 1 
    44     16     41 1 
    45     17     42 1 
    46     18     43 1 
    47     19     44 1 
    48     20     45 1 
    49     20     46 1 
    50     21     47 1 
    51     21     48 1 
    52     25     49 1 
@<TRIPOS>SUBSTRUCTURE
     1 MOL1         1 MOLECULE          1 A
