# Molecule written by the XED library from Cresset
@<TRIPOS>MOLECULE
CHEMBL185799
    56     59      1
SMALL
USER_CHARGES
@<TRIPOS>ATOM
      1 C            6.9151   -2.3582   -0.0361 C.3       1 MOL1       -0.0471
      2 O            6.7107   -0.9311   -0.0202 O.3       1 MOL1       -0.2004
      3 C            5.4578   -0.4565   -0.0189 C.ar      1 MOL1        0.0771
      4 C            4.3494   -1.3086   -0.0247 C.ar      1 MOL1       -0.0552
      5 C            3.0983   -0.7561   -0.0274 C.ar      1 MOL1       -0.0453
      6 C            1.7361   -1.3509   -0.0353 C.2       1 MOL1       -0.0630
      7 C            0.7786   -0.4227   -0.0633 C.2       1 MOL1       -0.0794
      8 C           -0.7215   -0.5712   -0.0124 C.3       1 MOL1       -0.0170
      9 C           -1.2831   -0.8230   -1.4195 C.3       1 MOL1       -0.0721
     10 C           -2.8211   -0.7336   -1.3508 C.3       1 MOL1       -0.0522
     11 N           -3.4765   -1.6406   -0.3200 N.4       1 MOL1       -0.1556
     12 C           -3.5224   -3.0475   -0.8709 C.3       1 MOL1       -0.0797
     13 C           -4.9160   -1.2089   -0.0851 C.3       1 MOL1       -0.0099
     14 C           -5.3071    0.2523    0.1863 C.ar      1 MOL1       -0.0534
     15 C           -4.5022    1.2313    0.7366 C.ar      1 MOL1       -0.0850
     16 C           -4.9731    2.5098    0.9312 C.ar      1 MOL1       -0.0901
     17 C           -6.2623    2.8304    0.5787 C.ar      1 MOL1       -0.0906
     18 C           -7.0768    1.8664    0.0338 C.ar      1 MOL1       -0.0901
     19 C           -6.5991    0.5900   -0.1569 C.ar      1 MOL1       -0.0850
     20 C           -2.7274   -1.6810    1.0053 C.3       1 MOL1       -0.0522
     21 C           -1.1854   -1.7154    0.9020 C.3       1 MOL1       -0.0721
     22 C            1.4649    0.8578   -0.0358 C.2       1 MOL1        0.1671
     23 O            0.9812    1.9762   -0.0212 O.2       1 MOL1       -0.2127
     24 C            2.9234    0.6204   -0.0249 C.ar      1 MOL1       -0.0248
     25 C            4.0018    1.4699   -0.0165 C.ar      1 MOL1       -0.0442
     26 C            5.2836    0.9241   -0.0133 C.ar      1 MOL1        0.0752
     27 O            6.3811    1.7012   -0.0064 O.3       1 MOL1       -0.2001
     28 C            6.2198    3.1340   -0.0042 C.3       1 MOL1       -0.0471
     29  H           8.0924   -2.5904   -0.0420 H         1 MOL1        0.0618
     30  H           6.4122   -2.8286   -1.0192 H         1 MOL1        0.0618
     31  H           6.4169   -2.8446    0.9411 H         1 MOL1        0.0618
     32  H           4.4653   -2.3016   -0.0280 H         1 MOL1        0.0928
     33  H           1.5595   -2.3249   -0.0176 H         1 MOL1        0.0912
     34  H          -1.1733    0.4545    0.4162 H         1 MOL1        0.0519
     35  H          -0.8770    0.0236   -2.1666 H         1 MOL1        0.0473
     36  H          -0.9299   -1.8982   -1.8169 H         1 MOL1        0.0473
     37  H          -3.2683   -0.9465   -2.4441 H         1 MOL1        0.0544
     38  H          -3.0522    0.4157   -1.1099 H         1 MOL1        0.0544
     39  H          -4.0369   -3.0731   -1.9548 H         1 MOL1        0.0518
     40  H          -4.1615   -3.7566   -0.1428 H         1 MOL1        0.0518
     41  H          -2.4212   -3.5088   -0.9731 H         1 MOL1        0.0518
     42  H          -5.5292   -1.5165   -1.0711 H         1 MOL1        0.0574
     43  H          -5.3574   -1.8702    0.8143 H         1 MOL1        0.0574
     44  H          -3.5616    1.0218    0.9915 H         1 MOL1        0.0908
     45  H          -4.3756    3.2069    1.3277 H         1 MOL1        0.0906
     46  H          -6.6055    3.7593    0.7178 H         1 MOL1        0.0906
     47  H          -8.0161    2.0929   -0.2241 H         1 MOL1        0.0906
     48  H          -7.1993   -0.1046   -0.5533 H         1 MOL1        0.0908
     49  H          -2.9961   -0.7392    1.6918 H         1 MOL1        0.0544
     50  H          -3.0714   -2.6439    1.6341 H         1 MOL1        0.0544
     51  H          -0.7192   -1.5601    1.9968 H         1 MOL1        0.0473
     52  H          -0.8009   -2.7636    0.4639 H         1 MOL1        0.0473
     53  H           3.8657    2.4603   -0.0146 H         1 MOL1        0.0928
     54  H           5.6189    3.4725   -0.9862 H         1 MOL1        0.0618
     55  H           5.6110    3.4696    0.9740 H         1 MOL1        0.0618
     56  H           7.3002    3.6564    0.0021 H         1 MOL1        0.0618
@<TRIPOS>BOND
     1      1      2 1 
     2      2      3 1 
     3      3      4 ar
     4      4      5 ar
     5      5      6 1 
     6      6      7 2 
     7      7      8 1 
     8      7     22 1 
     9      8      9 1 
    10      9     10 1 
    11     10     11 1 
    12     11     12 1 
    13     11     13 1 
    14     11     20 1 
    15     13     14 1 
    16     14     15 ar
    17     15     16 ar
    18     16     17 ar
    19     17     18 ar
    20     18     19 ar
    21     19     14 ar
    22     20     21 1 
    23     21      8 1 
    24     22     23 2 
    25     22     24 1 
    26     24      5 ar
    27     24     25 ar
    28     25     26 ar
    29     26      3 ar
    30     26     27 1 
    31     27     28 1 
    32      1     29 1 
    33      1     30 1 
    34      1     31 1 
    35      4     32 1 
    36      6     33 1 
    37      8     34 1 
    38      9     35 1 
    39      9     36 1 
    40     10     37 1 
    41     10     38 1 
    42     12     39 1 
    43     12     40 1 
    44     12     41 1 
    45     13     42 1 
    46     13     43 1 
    47     15     44 1 
    48     16     45 1 
    49     17     46 1 
    50     18     47 1 
    51     19     48 1 
    52     20     49 1 
    53     20     50 1 
    54     21     51 1 
    55     21     52 1 
    56     25     53 1 
    57     28     54 1 
    58     28     55 1 
    59     28     56 1 
@<TRIPOS>SUBSTRUCTURE
     1 MOL1         1 MOLECULE          1 A
