# Molecule written by the XED library from Cresset
@<TRIPOS>MOLECULE
CHEMBL187812
    56     59      1
SMALL
USER_CHARGES
@<TRIPOS>ATOM
      1 C            7.0363   -2.2305   -0.1863 C.3       1 MOL1       -0.0471
      2 O            6.8847   -0.8029   -0.0167 O.3       1 MOL1       -0.2030
      3 C            5.6465   -0.2739    0.0147 C.ar      1 MOL1        0.0639
      4 C            4.5162   -1.0715   -0.0447 C.ar      1 MOL1       -0.0741
      5 C            3.2663   -0.4883    0.0296 C.ar      1 MOL1       -0.0258
      6 C            1.9638   -1.1129   -0.0034 C.ar      1 MOL1       -0.0825
      7 C            0.9420   -0.2815    0.0910 C.ar      1 MOL1       -0.0015
      8 S            1.4725    1.4234    0.2539 S.3       1 MOL1       -0.1263
      9 C            3.1637    0.8709    0.1523 C.ar      1 MOL1        0.0268
     10 C            4.2614    1.6946    0.1888 C.ar      1 MOL1       -0.0641
     11 C            5.5182    1.1175    0.1183 C.ar      1 MOL1        0.0693
     12 O            6.6404    1.8569    0.1394 O.3       1 MOL1       -0.2012
     13 C            6.5261    3.2925    0.2537 C.3       1 MOL1       -0.0471
     14 C           -0.5406   -0.6529    0.0497 C.3       1 MOL1        0.0103
     15 C           -1.2594    0.0477   -1.1117 C.3       1 MOL1       -0.0656
     16 C           -2.7874   -0.2438   -1.0854 C.3       1 MOL1       -0.0516
     17 N           -3.3948   -1.4852   -0.4120 N.4       1 MOL1       -0.1531
     18 C           -4.1258   -2.7404   -0.9841 C.3       1 MOL1       -0.0795
     19 C           -4.8425   -0.9427   -0.6111 C.3       1 MOL1       -0.0096
     20 C           -5.3463    0.4612   -0.1903 C.ar      1 MOL1       -0.0534
     21 C           -5.4081    1.5077   -1.0909 C.ar      1 MOL1       -0.0850
     22 C           -5.8681    2.7475   -0.7101 C.ar      1 MOL1       -0.0901
     23 C           -6.2899    2.9592    0.5792 C.ar      1 MOL1       -0.0906
     24 C           -6.2626    1.9242    1.4811 C.ar      1 MOL1       -0.0901
     25 C           -5.7945    0.6903    1.0943 C.ar      1 MOL1       -0.0850
     26 C           -2.2071   -2.3915   -0.8468 C.3       1 MOL1       -0.0247
     27 C           -0.8558   -2.1504   -0.1180 C.3       1 MOL1        0.0054
     28 O           -0.7897   -2.8356    1.1407 O.3       1 MOL1       -0.4424
     29  H           8.2036   -2.5128   -0.1644 H         1 MOL1        0.0618
     30  H           6.4861   -2.8233    0.7031 H         1 MOL1        0.0618
     31  H           6.5708   -2.5559   -1.2448 H         1 MOL1        0.0618
     32  H           4.5968   -2.0632   -0.1358 H         1 MOL1        0.0928
     33  H           1.8570   -2.1012   -0.0997 H         1 MOL1        0.0927
     34  H           4.1532    2.6854    0.2703 H         1 MOL1        0.0943
     35  H           5.9029    3.7262   -0.6769 H         1 MOL1        0.0618
     36  H           7.6230    3.7808    0.2592 H         1 MOL1        0.0618
     37  H           5.9618    3.5691    1.2797 H         1 MOL1        0.0618
     38  H          -1.0516   -0.2843    1.0685 H         1 MOL1        0.0556
     39  H          -0.7806   -0.3253   -2.1449 H         1 MOL1        0.0473
     40  H          -1.0556    1.2300   -1.0245 H         1 MOL1        0.0473
     41  H          -3.1989   -0.0605   -2.1985 H         1 MOL1        0.0544
     42  H          -3.0867    0.6706   -0.3672 H         1 MOL1        0.0544
     43  H          -5.3175   -2.9287   -1.0598 H         1 MOL1        0.0518
     44  H          -4.0228   -3.6662   -0.2188 H         1 MOL1        0.0518
     45  H          -3.8755   -3.0322   -2.1273 H         1 MOL1        0.0518
     46  H          -5.2273   -0.9920   -1.7574 H         1 MOL1        0.0574
     47  H          -5.5864   -1.5071    0.1511 H         1 MOL1        0.0574
     48  H          -5.1068    1.3656   -2.0328 H         1 MOL1        0.0908
     49  H          -5.8981    3.4992   -1.3681 H         1 MOL1        0.0906
     50  H          -6.6212    3.8598    0.8544 H         1 MOL1        0.0906
     51  H          -6.5828    2.0702    2.4172 H         1 MOL1        0.0906
     52  H          -5.7812   -0.0558    1.7574 H         1 MOL1        0.0908
     53  H          -1.9511   -2.2507   -2.0171 H         1 MOL1        0.0564
     54  H          -2.1762   -3.5806   -0.6742 H         1 MOL1        0.0564
     55  H          -0.0107   -2.6507   -0.8093 H         1 MOL1        0.0674
     56  H           0.1211   -2.7392    1.5562 H         1 MOL1        0.3291
@<TRIPOS>BOND
     1      1      2 1 
     2      2      3 1 
     3      3      4 ar
     4      4      5 ar
     5      5      6 ar
     6      6      7 ar
     7      7      8 ar
     8      7     14 1 
     9      8      9 ar
    10      9      5 ar
    11      9     10 ar
    12     10     11 ar
    13     11      3 ar
    14     11     12 1 
    15     12     13 1 
    16     14     15 1 
    17     15     16 1 
    18     16     17 1 
    19     17     18 1 
    20     17     19 1 
    21     17     26 1 
    22     19     20 1 
    23     20     21 ar
    24     21     22 ar
    25     22     23 ar
    26     23     24 ar
    27     24     25 ar
    28     25     20 ar
    29     26     27 1 
    30     27     14 1 
    31     27     28 1 
    32      1     29 1 
    33      1     30 1 
    34      1     31 1 
    35      4     32 1 
    36      6     33 1 
    37     10     34 1 
    38     13     35 1 
    39     13     36 1 
    40     13     37 1 
    41     14     38 1 
    42     15     39 1 
    43     15     40 1 
    44     16     41 1 
    45     16     42 1 
    46     18     43 1 
    47     18     44 1 
    48     18     45 1 
    49     19     46 1 
    50     19     47 1 
    51     21     48 1 
    52     22     49 1 
    53     23     50 1 
    54     24     51 1 
    55     25     52 1 
    56     26     53 1 
    57     26     54 1 
    58     27     55 1 
    59     28     56 1 
@<TRIPOS>SUBSTRUCTURE
     1 MOL1         1 MOLECULE          1 A
