# Molecule written by the XED library from Cresset
@<TRIPOS>MOLECULE
CHEMBL3921061
    40     41      1
SMALL
USER_CHARGES
@<TRIPOS>ATOM
      1 C           -6.3825   -2.7401   -0.0024 C.3       1 MOL1        0.0498
      2 N           -4.9761   -2.3186   -0.0017 N.am      1 MOL1       -0.4035
      3 C           -3.9575   -3.3785   -0.0014 C.3       1 MOL1        0.0498
      4 C           -4.6513   -1.0065   -0.0011 C.2       1 MOL1        0.4105
      5 O           -5.4842   -0.1043   -0.0065 O.2       1 MOL1       -0.4165
      6 O           -3.2998   -0.7909    0.0073 O.3       1 MOL1       -0.1068
      7 C           -2.8117    0.5012    0.0039 C.ar      1 MOL1        0.0699
      8 C           -3.5989    1.6442    0.0044 C.ar      1 MOL1       -0.0694
      9 C           -3.0277    2.8947    0.0018 C.ar      1 MOL1       -0.0851
     10 C           -1.6629    3.0283   -0.0005 C.ar      1 MOL1       -0.0776
     11 C           -0.8417    1.9100   -0.0004 C.ar      1 MOL1        0.0035
     12 C           -1.4395    0.6571    0.0013 C.ar      1 MOL1       -0.0568
     13 C            0.6280    2.0989   -0.0015 C.2       1 MOL1        0.1863
     14 O            1.0953    3.2309   -0.0020 O.2       1 MOL1       -0.3942
     15 C            1.5391    0.9782   -0.0014 C.2       1 MOL1       -0.0712
     16 C            2.8726    1.1921   -0.0008 C.2       1 MOL1       -0.0253
     17 C            3.8737    0.1111   -0.0005 C.ar      1 MOL1       -0.0397
     18 C            3.5364   -1.2373   -0.0003 C.ar      1 MOL1       -0.0657
     19 C            4.5156   -2.1970   -0.0001 C.ar      1 MOL1       -0.0817
     20 C            5.8495   -1.8300    0.0000 C.ar      1 MOL1        0.0642
     21 O            6.8207   -2.7789    0.0002 O.3       1 MOL1       -0.3810
     22 C            6.1937   -0.4908   -0.0001 C.ar      1 MOL1       -0.0817
     23 C            5.2150    0.4686   -0.0003 C.ar      1 MOL1       -0.0657
     24  H          -7.1086   -1.7849   -0.0027 H         1 MOL1        0.0567
     25  H          -6.5986   -3.3999    0.9763 H         1 MOL1        0.0567
     26  H          -6.5980   -3.4004   -0.9810 H         1 MOL1        0.0567
     27  H          -2.8441   -2.9325   -0.0032 H         1 MOL1        0.0567
     28  H          -4.1037   -4.0587    0.9764 H         1 MOL1        0.0567
     29  H          -4.1057   -4.0607   -0.9774 H         1 MOL1        0.0567
     30  H          -4.5927    1.5716    0.0068 H         1 MOL1        0.0924
     31  H          -3.6089    3.7084    0.0020 H         1 MOL1        0.0906
     32  H          -1.2555    3.9416   -0.0020 H         1 MOL1        0.0910
     33  H          -0.8668   -0.1606    0.0013 H         1 MOL1        0.0928
     34  H           1.1861    0.0588   -0.0018 H         1 MOL1        0.0931
     35  H           3.1967    2.1284   -0.0005 H         1 MOL1        0.0910
     36  H           2.5770   -1.5153   -0.0004 H         1 MOL1        0.0910
     37  H           4.2648   -3.1651    0.0000 H         1 MOL1        0.0924
     38  H           6.4308   -3.7063    0.0003 H         1 MOL1        0.3295
     39  H           7.1570   -0.2221   -0.0001 H         1 MOL1        0.0924
     40  H           5.4695    1.4357   -0.0004 H         1 MOL1        0.0910
@<TRIPOS>BOND
     1      1      2 1 
     2      2      3 1 
     3      2      4 am
     4      4      5 2 
     5      4      6 1 
     6      6      7 1 
     7      7      8 ar
     8      8      9 ar
     9      9     10 ar
    10     10     11 ar
    11     11     12 ar
    12     11     13 1 
    13     12      7 ar
    14     13     14 2 
    15     13     15 1 
    16     15     16 2 
    17     16     17 1 
    18     17     18 ar
    19     18     19 ar
    20     19     20 ar
    21     20     21 1 
    22     20     22 ar
    23     22     23 ar
    24     23     17 ar
    25      1     24 1 
    26      1     25 1 
    27      1     26 1 
    28      3     27 1 
    29      3     28 1 
    30      3     29 1 
    31      8     30 1 
    32      9     31 1 
    33     10     32 1 
    34     12     33 1 
    35     15     34 1 
    36     16     35 1 
    37     18     36 1 
    38     19     37 1 
    39     21     38 1 
    40     22     39 1 
    41     23     40 1 
@<TRIPOS>SUBSTRUCTURE
     1 MOL1         1 MOLECULE          1 A
