# Molecule written by the XED library from Cresset
@<TRIPOS>MOLECULE
CHEMBL462873
    48     50      1
SMALL
USER_CHARGES
@<TRIPOS>ATOM
      1 C            5.0317   -3.6856   -0.0540 C.3       1 MOL1       -0.0471
      2 O            5.4765   -2.3141   -0.0426 O.3       1 MOL1       -0.1993
      3 C            4.5647   -1.3377    0.0226 C.ar      1 MOL1        0.0824
      4 C            3.2019   -1.6067    0.0810 C.ar      1 MOL1       -0.0742
      5 C            2.3055   -0.5726    0.1412 C.ar      1 MOL1       -0.0420
      6 C            0.7864   -0.6172    0.2218 C.3       1 MOL1       -0.0041
      7 C            0.3548    0.8418    0.1591 C.2       1 MOL1       -0.0323
      8 C           -0.7976    1.5156   -0.0307 C.2       1 MOL1       -0.0234
      9 C           -2.1241    0.8772   -0.1637 C.ar      1 MOL1       -0.0260
     10 C           -3.1698    1.6483   -0.6449 C.ar      1 MOL1       -0.0703
     11 C           -4.4238    1.1101   -0.7974 C.ar      1 MOL1       -0.0831
     12 C           -4.6647   -0.2057   -0.4630 C.ar      1 MOL1       -0.0406
     13 C           -6.0508   -0.8150   -0.6365 C.3       1 MOL1       -0.0034
     14 N           -6.9245   -0.7045    0.5493 N.3       1 MOL1       -0.2617
     15 C           -8.0362   -1.6581    0.4434 C.3       1 MOL1       -0.0710
     16 C           -7.4600    0.6600    0.6745 C.3       1 MOL1       -0.0710
     17 C           -3.6299   -0.9776    0.0226 C.ar      1 MOL1       -0.0831
     18 C           -2.3718   -0.4459    0.1699 C.ar      1 MOL1       -0.0703
     19 C            1.5876    1.5904    0.1846 C.2       1 MOL1        0.1921
     20 O            1.6948    2.8095    0.2122 O.2       1 MOL1       -0.3952
     21 C            2.7564    0.7253    0.1435 C.ar      1 MOL1       -0.0045
     22 C            4.1088    1.0225    0.0928 C.ar      1 MOL1       -0.0552
     23 C            5.0176   -0.0148    0.0307 C.ar      1 MOL1        0.0721
     24 O            6.3440    0.2040   -0.0263 O.3       1 MOL1       -0.2025
     25 C            6.8259    1.5629   -0.0256 C.3       1 MOL1       -0.0471
     26  H           4.3260   -3.8731   -1.0064 H         1 MOL1        0.0618
     27  H           5.9853   -4.4113   -0.1184 H         1 MOL1        0.0618
     28  H           4.4224   -3.9198    0.9530 H         1 MOL1        0.0618
     29  H           2.8721   -2.5503    0.0794 H         1 MOL1        0.0926
     30  H           0.4790   -1.0860    1.2828 H         1 MOL1        0.0524
     31  H           0.3027   -1.2524   -0.6741 H         1 MOL1        0.0524
     32  H          -0.7484    2.5027   -0.1022 H         1 MOL1        0.0912
     33  H          -3.0086    2.6050   -0.8873 H         1 MOL1        0.0910
     34  H          -5.1676    1.6768   -1.1516 H         1 MOL1        0.0908
     35  H          -5.8711   -1.9773   -0.8799 H         1 MOL1        0.0598
     36  H          -6.5902   -0.3405   -1.5989 H         1 MOL1        0.0598
     37  H          -8.7780   -1.5377    1.3793 H         1 MOL1        0.0543
     38  H          -8.6427   -1.4538   -0.5717 H         1 MOL1        0.0543
     39  H          -7.6185   -2.7832    0.4394 H         1 MOL1        0.0543
     40  H          -8.1186    0.7499    1.6735 H         1 MOL1        0.0543
     41  H          -8.1517    0.9213   -0.2710 H         1 MOL1        0.0543
     42  H          -6.5609    1.4505    0.7423 H         1 MOL1        0.0543
     43  H          -3.7961   -1.9331    0.2664 H         1 MOL1        0.0908
     44  H          -1.6324   -1.0185    0.5212 H         1 MOL1        0.0910
     45  H           4.4170    1.9735    0.0967 H         1 MOL1        0.0928
     46  H           8.0245    1.5604   -0.0835 H         1 MOL1        0.0618
     47  H           6.3825    2.1469   -0.9755 H         1 MOL1        0.0618
     48  H           6.4759    2.1119    0.9826 H         1 MOL1        0.0618
@<TRIPOS>BOND
     1      1      2 1 
     2      2      3 1 
     3      3      4 ar
     4      4      5 ar
     5      5      6 1 
     6      6      7 1 
     7      7      8 2 
     8      7     19 1 
     9      8      9 1 
    10      9     10 ar
    11     10     11 ar
    12     11     12 ar
    13     12     13 1 
    14     12     17 ar
    15     13     14 1 
    16     14     15 1 
    17     14     16 1 
    18     17     18 ar
    19     18      9 ar
    20     19     20 2 
    21     19     21 1 
    22     21      5 ar
    23     21     22 ar
    24     22     23 ar
    25     23      3 ar
    26     23     24 1 
    27     24     25 1 
    28      1     26 1 
    29      1     27 1 
    30      1     28 1 
    31      4     29 1 
    32      6     30 1 
    33      6     31 1 
    34      8     32 1 
    35     10     33 1 
    36     11     34 1 
    37     13     35 1 
    38     13     36 1 
    39     15     37 1 
    40     15     38 1 
    41     15     39 1 
    42     16     40 1 
    43     16     41 1 
    44     16     42 1 
    45     17     43 1 
    46     18     44 1 
    47     22     45 1 
    48     25     46 1 
    49     25     47 1 
    50     25     48 1 
@<TRIPOS>SUBSTRUCTURE
     1 MOL1         1 MOLECULE          1 A
