# Molecule written by the XED library from Cresset
@<TRIPOS>MOLECULE
CHEMBL251077
    43     47      1
SMALL
USER_CHARGES
@<TRIPOS>ATOM
      1 C            0.7240    3.9580    2.1727 C.3       1 MOL1       -0.0338
      2 C            1.2501    3.3028    0.9201 C.2       1 MOL1        0.2815
      3 O            1.7700    3.8793   -0.0179 O.2       1 MOL1       -0.3726
      4 O            1.0607    1.9714    0.9440 O.3       1 MOL1       -0.1566
      5 C            1.4225    1.2459   -0.2488 C.3       1 MOL1        0.0404
      6 C            2.9636    1.1097   -0.3992 C.3       1 MOL1        0.0391
      7 O            3.3348    1.3346   -1.7656 O.3       1 MOL1       -0.4344
      8 C            3.5168   -0.2418    0.0126 C.2       1 MOL1       -0.0930
      9 C            2.8222   -1.2489    0.5035 C.2       1 MOL1       -0.0778
     10 C            3.1889   -2.6691    0.8549 C.3       1 MOL1       -0.0387
     11 C            1.8866   -3.4589    0.5705 C.3       1 MOL1       -0.0396
     12 N            0.9773   -2.4364    0.0330 N.3       1 MOL1       -0.2400
     13 C           -0.4407   -2.7365    0.3096 C.3       1 MOL1       -0.0031
     14 C           -1.3398   -1.5336    0.0007 C.ar      1 MOL1       -0.0599
     15 C           -2.7062   -1.7343    0.0695 C.ar      1 MOL1       -0.0750
     16 C           -3.5118   -0.6475   -0.1667 C.ar      1 MOL1        0.0697
     17 O           -4.8364   -0.5910   -0.1440 O.3       1 MOL1       -0.1768
     18 C           -5.2618    0.7739   -0.4330 C.3       1 MOL1        0.0590
     19 O           -3.9837    1.4473   -0.6345 O.3       1 MOL1       -0.1768
     20 C           -3.0004    0.5750   -0.4622 C.ar      1 MOL1        0.0695
     21 C           -1.6483    0.7980   -0.5456 C.ar      1 MOL1       -0.0759
     22 C           -0.8114   -0.2784   -0.3028 C.ar      1 MOL1       -0.0576
     23 C            0.7131   -0.1281   -0.3657 C.3       1 MOL1        0.0181
     24 C            1.3354   -1.1419    0.6055 C.3       1 MOL1        0.0252
     25 H            1.0359    1.9092   -1.1711 H         1 MOL1        0.0692
     26 H            3.5069    1.9545    0.2593 H         1 MOL1        0.0705
     27 H            1.0093   -0.5220   -1.4598 H         1 MOL1        0.0555
     28 H            0.9733   -1.0360    1.7456 H         1 MOL1        0.0625
     29  H          -0.4540    3.7508    2.2792 H         1 MOL1        0.0507
     30  H           0.9058    5.1412    2.0866 H         1 MOL1        0.0507
     31  H           1.2980    3.5378    3.1398 H         1 MOL1        0.0507
     32  H           4.3333    1.2946   -1.8842 H         1 MOL1        0.3291
     33  H           4.4914   -0.3815   -0.0991 H         1 MOL1        0.0901
     34  H           3.3942   -2.7229    2.0365 H         1 MOL1        0.0501
     35  H           4.1516   -3.0529    0.2504 H         1 MOL1        0.0501
     36  H           2.0661   -4.3207   -0.2443 H         1 MOL1        0.0571
     37  H           1.4846   -3.9426    1.5928 H         1 MOL1        0.0571
     38  H          -0.5873   -2.9835    1.4743 H         1 MOL1        0.0598
     39  H          -0.7846   -3.6860   -0.3378 H         1 MOL1        0.0598
     40  H          -3.0905   -2.6307    0.2908 H         1 MOL1        0.0926
     41  H          -5.8483    1.2437    0.5025 H         1 MOL1        0.0806
     42  H          -5.9343    0.8162   -1.4259 H         1 MOL1        0.0806
     43  H          -1.2827    1.7023   -0.7660 H         1 MOL1        0.0926
@<TRIPOS>BOND
     1      1      2 1 
     2      2      3 2 
     3      2      4 1 
     4      4      5 1 
     5      5      6 1 
     6      6      7 1 
     7      6      8 1 
     8      8      9 2 
     9      9     10 1 
    10     10     11 1 
    11     11     12 1 
    12     12     13 1 
    13     13     14 1 
    14     14     15 ar
    15     15     16 ar
    16     16     17 1 
    17     17     18 1 
    18     18     19 1 
    19     19     20 1 
    20     20     16 ar
    21     20     21 ar
    22     21     22 ar
    23     22     14 ar
    24     22     23 1 
    25     23      5 1 
    26     23     24 1 
    27     24      9 1 
    28     24     12 1 
    29      1     29 1 
    30      1     30 1 
    31      1     31 1 
    32      5     25 1 
    33      6     26 1 
    34      7     32 1 
    35      8     33 1 
    36     10     34 1 
    37     10     35 1 
    38     11     36 1 
    39     11     37 1 
    40     13     38 1 
    41     13     39 1 
    42     15     40 1 
    43     18     41 1 
    44     18     42 1 
    45     21     43 1 
    46     23     27 1 
    47     24     28 1 
@<TRIPOS>SUBSTRUCTURE
     1 MOL1         1 MOLECULE          1 A
