# Molecule written by the XED library from Cresset
@<TRIPOS>MOLECULE
CHEMBL374184
    56     59      1
SMALL
USER_CHARGES
@<TRIPOS>ATOM
      1 C           -5.9931   -3.1198   -0.2632 C.3       1 MOL1       -0.0957
      2 C           -5.1294   -1.8578   -0.1197 C.3       1 MOL1       -0.0293
      3 O           -3.7298   -2.1911   -0.1692 O.3       1 MOL1       -0.1708
      4 C           -2.8479   -1.1640   -0.0749 C.2       1 MOL1        0.2550
      5 O           -3.2985   -0.0267   -0.0097 O.2       1 MOL1       -0.4122
      6 C           -1.4148   -1.3782   -0.0864 C.2       1 MOL1       -0.0737
      7 C           -0.9284   -2.5278    0.4601 C.2       1 MOL1        0.1195
      8 C           -1.5961   -3.6964    1.1613 C.3       1 MOL1       -0.0659
      9 N            0.4124   -2.7168    0.4660 N.pl3     1 MOL1       -0.1830
     10 C            1.3821   -1.7934    0.1071 C.ar      1 MOL1        0.1818
     11 N            2.6445   -2.1967    0.3629 N.ar      1 MOL1       -0.3798
     12 C            3.6136   -1.3106    0.0580 C.ar      1 MOL1        0.0374
     13 C            5.0384   -1.7458    0.3718 C.3       1 MOL1       -0.0375
     14 C            6.0161   -0.5848    0.6189 C.3       1 MOL1       -0.0839
     15 C            5.9659    0.3196   -0.6220 C.3       1 MOL1       -0.0858
     16 C            4.5351    0.8680   -0.8109 C.3       1 MOL1       -0.0475
     17 C            3.3724   -0.0828   -0.5084 C.ar      1 MOL1       -0.0879
     18 C            2.0568    0.2863   -0.7804 C.ar      1 MOL1        0.0761
     19 N            1.7887    1.5236   -1.3703 N.pl3     1 MOL1       -0.4744
     20 C            1.0249   -0.5794   -0.4512 C.ar      1 MOL1       -0.0694
     21 C           -0.4780   -0.3142   -0.6669 C.3       1 MOL1        0.0589
     22 C           -0.9304    1.1086   -0.3320 C.ar      1 MOL1       -0.0651
     23 C           -0.7535    1.6569    0.9208 C.ar      1 MOL1       -0.0813
     24 C           -1.1679    2.9426    1.1846 C.ar      1 MOL1       -0.0835
     25 C           -1.7738    3.7052    0.1989 C.ar      1 MOL1        0.0583
     26 O           -2.1923    4.9627    0.4009 O.3       1 MOL1       -0.2037
     27 C           -1.9500    5.5809    1.6813 C.3       1 MOL1       -0.0471
     28 C           -1.9527    3.1484   -1.0519 C.ar      1 MOL1       -0.0835
     29 C           -1.5357    1.8664   -1.3131 C.ar      1 MOL1       -0.0813
     30  H          -7.1525   -2.8172   -0.1963 H         1 MOL1        0.0452
     31  H          -5.7276   -3.8902    0.6187 H         1 MOL1        0.0452
     32  H          -5.7728   -3.6357   -1.3236 H         1 MOL1        0.0452
     33  H          -5.3897   -1.0956   -1.0094 H         1 MOL1        0.0640
     34  H          -5.3698   -1.3347    0.9336 H         1 MOL1        0.0640
     35  H          -2.7721   -3.5651    1.3419 H         1 MOL1        0.0476
     36  H          -1.4025   -4.6926    0.5197 H         1 MOL1        0.0476
     37  H          -1.0949   -3.8295    2.2446 H         1 MOL1        0.0476
     38  H           0.7117   -3.4953    0.7509 H         1 MOL1        0.2048
     39  H           5.4461   -2.3883   -0.5555 H         1 MOL1        0.0503
     40  H           5.0214   -2.4540    1.3400 H         1 MOL1        0.0503
     41  H           7.1269   -1.0114    0.7740 H         1 MOL1        0.0463
     42  H           5.6797    0.0317    1.5914 H         1 MOL1        0.0463
     43  H           6.7464    1.2250   -0.5182 H         1 MOL1        0.0463
     44  H           6.2600   -0.3426   -1.5781 H         1 MOL1        0.0463
     45  H           4.4099    1.8151   -0.0849 H         1 MOL1        0.0492
     46  H           4.4666    1.2397   -1.9491 H         1 MOL1        0.0492
     47  H           2.4550    2.0679   -1.5500 H         1 MOL1        0.2750
     48  H           1.0477    1.6190   -1.8352 H         1 MOL1        0.2750
     49  H          -0.6062   -0.4519   -1.8529 H         1 MOL1        0.0580
     50  H          -0.3177    1.1165    1.6414 H         1 MOL1        0.0908
     51  H          -1.0281    3.3279    2.0960 H         1 MOL1        0.0924
     52  H          -0.7708    5.6046    1.9047 H         1 MOL1        0.0618
     53  H          -2.5052    4.9616    2.5458 H         1 MOL1        0.0618
     54  H          -2.3699    6.7058    1.6689 H         1 MOL1        0.0618
     55  H          -2.3879    3.6824   -1.7768 H         1 MOL1        0.0924
     56  H          -1.6729    1.4804   -2.2253 H         1 MOL1        0.0908
@<TRIPOS>BOND
     1      1      2 1 
     2      2      3 1 
     3      3      4 1 
     4      4      5 2 
     5      4      6 1 
     6      6      7 2 
     7      7      8 1 
     8      7      9 1 
     9      9     10 1 
    10     10     11 ar
    11     11     12 ar
    12     12     13 1 
    13     13     14 1 
    14     14     15 1 
    15     15     16 1 
    16     16     17 1 
    17     17     12 ar
    18     17     18 ar
    19     18     19 1 
    20     18     20 ar
    21     20     10 ar
    22     20     21 1 
    23     21      6 1 
    24     21     22 1 
    25     22     23 ar
    26     23     24 ar
    27     24     25 ar
    28     25     26 1 
    29     25     28 ar
    30     26     27 1 
    31     28     29 ar
    32     29     22 ar
    33      1     30 1 
    34      1     31 1 
    35      1     32 1 
    36      2     33 1 
    37      2     34 1 
    38      8     35 1 
    39      8     36 1 
    40      8     37 1 
    41      9     38 1 
    42     13     39 1 
    43     13     40 1 
    44     14     41 1 
    45     14     42 1 
    46     15     43 1 
    47     15     44 1 
    48     16     45 1 
    49     16     46 1 
    50     19     47 1 
    51     19     48 1 
    52     21     49 1 
    53     23     50 1 
    54     24     51 1 
    55     27     52 1 
    56     27     53 1 
    57     27     54 1 
    58     28     55 1 
    59     29     56 1 
@<TRIPOS>SUBSTRUCTURE
     1 MOL1         1 MOLECULE          1 A
