# Molecule written by the XED library from Cresset
@<TRIPOS>MOLECULE
CHEMBL433379
    51     54      1
SMALL
USER_CHARGES
@<TRIPOS>ATOM
      1 C           -5.7729   -3.6790   -0.0017 C.3       1 MOL1       -0.0802
      2 C           -5.6612   -2.1682    0.0132 C.ar      1 MOL1       -0.0801
      3 C           -6.8119   -1.4029   -0.1574 C.ar      1 MOL1       -0.0632
      4 C           -6.7600   -0.0310   -0.1472 C.ar      1 MOL1       -0.0784
      5 C           -5.5247    0.5593    0.0401 C.ar      1 MOL1        0.1031
      6 O           -5.2661    1.8739    0.0826 O.3       1 MOL1       -0.0824
      7 N           -3.8691    2.0038    0.2986 N.ar      1 MOL1       -0.2643
      8 C           -3.3743    0.8063    0.3680 C.ar      1 MOL1        0.1096
      9 C           -1.9002    0.5367    0.5975 C.3       1 MOL1       -0.0333
     10 C           -0.9837    1.6545    0.0631 C.3       1 MOL1       -0.0806
     11 C            0.5113    1.2910    0.1844 C.3       1 MOL1       -0.0563
     12 C            0.9679    0.4192   -1.0020 C.3       1 MOL1       -0.0743
     13 C            2.4568    0.0349   -0.8426 C.3       1 MOL1       -0.0462
     14 N            3.3050    1.0510   -0.1764 N.3       1 MOL1       -0.2521
     15 C            4.6989    0.9799   -0.6704 C.3       1 MOL1       -0.0032
     16 C            5.5390   -0.2172   -0.2313 C.ar      1 MOL1       -0.0509
     17 C            5.2119   -1.5054   -0.6024 C.ar      1 MOL1       -0.0846
     18 C            5.9908   -2.5674   -0.2086 C.ar      1 MOL1       -0.0900
     19 C            7.1153   -2.3518    0.5532 C.ar      1 MOL1       -0.0906
     20 C            7.4569   -1.0722    0.9231 C.ar      1 MOL1       -0.0900
     21 C            6.6695   -0.0128    0.5326 C.ar      1 MOL1       -0.0846
     22 C            2.7598    2.4026   -0.4033 C.3       1 MOL1       -0.0462
     23 C            1.3613    2.5834    0.2324 C.3       1 MOL1       -0.0743
     24 C           -4.3875   -0.1856    0.2102 C.ar      1 MOL1       -0.0002
     25 C           -4.4386   -1.5750    0.1991 C.ar      1 MOL1       -0.0530
     26  H          -4.6911   -4.1849   -0.1303 H         1 MOL1        0.0465
     27  H          -6.2615   -4.0481    1.0312 H         1 MOL1        0.0465
     28  H          -6.4743   -4.0204   -0.9121 H         1 MOL1        0.0465
     29  H          -7.6908   -1.8610   -0.2887 H         1 MOL1        0.0908
     30  H          -7.5852    0.5200   -0.2704 H         1 MOL1        0.0924
     31  H          -1.7096    0.4151    1.7765 H         1 MOL1        0.0503
     32  H          -1.6400   -0.5037    0.0613 H         1 MOL1        0.0503
     33  H          -1.2513    1.8787   -1.0843 H         1 MOL1        0.0465
     34  H          -1.2109    2.6387    0.7114 H         1 MOL1        0.0465
     35  H           0.6826    0.6680    1.1957 H         1 MOL1        0.0488
     36  H           0.3184   -0.5836   -1.0964 H         1 MOL1        0.0474
     37  H           0.8324    1.0669   -2.0043 H         1 MOL1        0.0474
     38  H           2.5112   -0.9592   -0.1763 H         1 MOL1        0.0568
     39  H           2.8659   -0.2431   -1.9350 H         1 MOL1        0.0568
     40  H           5.2823    1.9565   -0.2838 H         1 MOL1        0.0598
     41  H           4.7099    1.0410   -1.8681 H         1 MOL1        0.0598
     42  H           4.4011   -1.6797   -1.1654 H         1 MOL1        0.0908
     43  H           5.7405   -3.4977   -0.4792 H         1 MOL1        0.0906
     44  H           7.6824   -3.1245    0.8368 H         1 MOL1        0.0906
     45  H           8.2750   -0.9111    1.4751 H         1 MOL1        0.0906
     46  H           6.9237    0.9156    0.8022 H         1 MOL1        0.0908
     47  H           3.4788    3.2453    0.0561 H         1 MOL1        0.0568
     48  H           2.6871    2.5764   -1.5898 H         1 MOL1        0.0568
     49  H           1.4789    2.9215    1.3793 H         1 MOL1        0.0474
     50  H           0.7989    3.4637   -0.3604 H         1 MOL1        0.0474
     51  H          -3.6115   -2.1240    0.3238 H         1 MOL1        0.0912
@<TRIPOS>BOND
     1      1      2 1 
     2      2      3 ar
     3      3      4 ar
     4      4      5 ar
     5      5      6 ar
     6      6      7 ar
     7      7      8 ar
     8      8      9 1 
     9      8     24 ar
    10      9     10 1 
    11     10     11 1 
    12     11     12 1 
    13     12     13 1 
    14     13     14 1 
    15     14     15 1 
    16     14     22 1 
    17     15     16 1 
    18     16     17 ar
    19     17     18 ar
    20     18     19 ar
    21     19     20 ar
    22     20     21 ar
    23     21     16 ar
    24     22     23 1 
    25     23     11 1 
    26     24      5 ar
    27     24     25 ar
    28     25      2 ar
    29      1     26 1 
    30      1     27 1 
    31      1     28 1 
    32      3     29 1 
    33      4     30 1 
    34      9     31 1 
    35      9     32 1 
    36     10     33 1 
    37     10     34 1 
    38     11     35 1 
    39     12     36 1 
    40     12     37 1 
    41     13     38 1 
    42     13     39 1 
    43     15     40 1 
    44     15     41 1 
    45     17     42 1 
    46     18     43 1 
    47     19     44 1 
    48     20     45 1 
    49     21     46 1 
    50     22     47 1 
    51     22     48 1 
    52     23     49 1 
    53     23     50 1 
    54     25     51 1 
@<TRIPOS>SUBSTRUCTURE
     1 MOL1         1 MOLECULE          1 A
