# Molecule written by the XED library from Cresset
@<TRIPOS>MOLECULE
CHEMBL92460
    48     51      1
SMALL
USER_CHARGES
@<TRIPOS>ATOM
      1 C            1.2508   -1.3661   -0.3570 C.3       1 MOL1       -0.0806
      2 C            2.1660   -0.2106    0.0993 C.3       1 MOL1       -0.0333
      3 C            3.6562   -0.4751    0.0077 C.ar      1 MOL1        0.1096
      4 N            4.1642   -1.6683   -0.0297 N.ar      1 MOL1       -0.2643
      5 O            5.5747   -1.5216   -0.0889 O.3       1 MOL1       -0.0824
      6 C            5.8225   -0.2041   -0.0776 C.ar      1 MOL1        0.1030
      7 C            7.0647    0.4008   -0.1136 C.ar      1 MOL1       -0.0788
      8 C            7.1043    1.7733   -0.0914 C.ar      1 MOL1       -0.0666
      9 C            5.9333    2.5242   -0.0337 C.ar      1 MOL1       -0.1033
     10 C            4.7047    1.9174    0.0022 C.ar      1 MOL1       -0.0563
     11 C            4.6677    0.5289   -0.0205 C.ar      1 MOL1       -0.0006
     12 C           -0.1687   -1.2181    0.2283 C.3       1 MOL1       -0.0563
     13 C           -0.8969    0.0366   -0.2907 C.3       1 MOL1       -0.0743
     14 C           -2.2819    0.1159    0.3812 C.3       1 MOL1       -0.0462
     15 N           -3.1190   -1.0684    0.0948 N.3       1 MOL1       -0.2521
     16 C           -4.4141   -0.9668    0.7996 C.3       1 MOL1       -0.0032
     17 C           -5.3494    0.1415    0.3261 C.ar      1 MOL1       -0.0509
     18 C           -5.3145    1.3803    0.9300 C.ar      1 MOL1       -0.0846
     19 C           -6.1581    2.3840    0.5127 C.ar      1 MOL1       -0.0900
     20 C           -7.0480    2.1538   -0.5107 C.ar      1 MOL1       -0.0906
     21 C           -7.0914    0.9186   -1.1156 C.ar      1 MOL1       -0.0900
     22 C           -6.2430   -0.0829   -0.6986 C.ar      1 MOL1       -0.0846
     23 C           -2.4187   -2.2980    0.5178 C.3       1 MOL1       -0.0462
     24 C           -1.0273   -2.4427   -0.1354 C.3       1 MOL1       -0.0743
     25  H           1.7017   -2.4029    0.0449 H         1 MOL1        0.0465
     26  H           1.2038   -1.4021   -1.5557 H         1 MOL1        0.0465
     27  H           1.9309    0.0587    1.2447 H         1 MOL1        0.0503
     28  H           1.9344    0.7515   -0.5789 H         1 MOL1        0.0503
     29  H           7.9039   -0.1412   -0.1536 H         1 MOL1        0.0924
     30  H           7.9880    2.2407   -0.1164 H         1 MOL1        0.0906
     31  H           5.9895    3.5225   -0.0174 H         1 MOL1        0.0906
     32  H           3.8633    2.4560    0.0448 H         1 MOL1        0.0910
     33  H          -0.0965   -1.1607    1.4246 H         1 MOL1        0.0488
     34  H          -0.2851    1.0257    0.0033 H         1 MOL1        0.0474
     35  H          -1.0184   -0.0317   -1.4830 H         1 MOL1        0.0474
     36  H          -2.1154    0.2131    1.5655 H         1 MOL1        0.0568
     37  H          -2.8216    1.1073   -0.0236 H         1 MOL1        0.0568
     38  H          -4.2160   -0.8407    1.9774 H         1 MOL1        0.0598
     39  H          -5.0112   -1.9987    0.6570 H         1 MOL1        0.0598
     40  H          -4.6702    1.5506    1.6755 H         1 MOL1        0.0908
     41  H          -6.1245    3.2804    0.9539 H         1 MOL1        0.0906
     42  H          -7.6625    2.8822   -0.8137 H         1 MOL1        0.0906
     43  H          -7.7393    0.7484   -1.8582 H         1 MOL1        0.0906
     44  H          -6.2780   -0.9790   -1.1405 H         1 MOL1        0.0908
     45  H          -3.0679   -3.2635    0.2248 H         1 MOL1        0.0568
     46  H          -2.2775   -2.2666    1.7083 H         1 MOL1        0.0568
     47  H          -1.1443   -2.5089   -1.3284 H         1 MOL1        0.0474
     48  H          -0.4942   -3.4375    0.2710 H         1 MOL1        0.0474
@<TRIPOS>BOND
     1      1      2 1 
     2      1     12 1 
     3      2      3 1 
     4      3      4 ar
     5      4      5 ar
     6      5      6 ar
     7      6      7 ar
     8      7      8 ar
     9      8      9 ar
    10      9     10 ar
    11     10     11 ar
    12     11      3 ar
    13     11      6 ar
    14     12     13 1 
    15     13     14 1 
    16     14     15 1 
    17     15     16 1 
    18     15     23 1 
    19     16     17 1 
    20     17     18 ar
    21     18     19 ar
    22     19     20 ar
    23     20     21 ar
    24     21     22 ar
    25     22     17 ar
    26     23     24 1 
    27     24     12 1 
    28      1     25 1 
    29      1     26 1 
    30      2     27 1 
    31      2     28 1 
    32      7     29 1 
    33      8     30 1 
    34      9     31 1 
    35     10     32 1 
    36     12     33 1 
    37     13     34 1 
    38     13     35 1 
    39     14     36 1 
    40     14     37 1 
    41     16     38 1 
    42     16     39 1 
    43     18     40 1 
    44     19     41 1 
    45     20     42 1 
    46     21     43 1 
    47     22     44 1 
    48     23     45 1 
    49     23     46 1 
    50     24     47 1 
    51     24     48 1 
@<TRIPOS>SUBSTRUCTURE
     1 MOL1         1 MOLECULE          1 A
