# Molecule written by the XED library from Cresset
@<TRIPOS>MOLECULE
CHEMBL3819247
    54     58      1
SMALL
USER_CHARGES
@<TRIPOS>ATOM
      1 C           -9.8992    0.9537   -0.0444 C.3       1 MOL1       -0.0471
      2 O           -8.9098   -0.0946   -0.0181 O.3       1 MOL1       -0.2039
      3 C           -7.6130    0.2427    0.0279 C.ar      1 MOL1        0.0640
      4 C           -7.1865    1.5680    0.0563 C.ar      1 MOL1       -0.0692
      5 C           -5.8459    1.8899    0.0971 C.ar      1 MOL1       -0.0805
      6 C           -4.9183    0.8797    0.1104 C.ar      1 MOL1       -0.0447
      7 C           -3.4002    0.9744    0.1282 C.3       1 MOL1       -0.0045
      8 C           -2.9183   -0.4689    0.1773 C.2       1 MOL1       -0.0313
      9 C           -1.7503   -1.1012    0.3152 C.2       1 MOL1       -0.0507
     10 C           -0.3208   -0.6118    0.4368 C.3       1 MOL1       -0.0232
     11 C            0.5035   -1.2733   -0.6807 C.3       1 MOL1       -0.0701
     12 C            2.0069   -0.9616   -0.5047 C.3       1 MOL1       -0.0455
     13 N            2.3387    0.4033   -0.0249 N.3       1 MOL1       -0.2521
     14 C            3.5554    0.9175   -0.6950 C.3       1 MOL1       -0.0042
     15 C            4.9322    0.3311   -0.3777 C.ar      1 MOL1       -0.0635
     16 C            5.1696   -1.0337   -0.3037 C.ar      1 MOL1       -0.0973
     17 C            6.4305   -1.5411   -0.0486 C.ar      1 MOL1       -0.0806
     18 C            7.4443   -0.6317    0.1200 C.ar      1 MOL1        0.0687
     19 O            8.7268   -0.8681    0.3580 O.3       1 MOL1       -0.1768
     20 C            9.4383    0.4025    0.4415 C.3       1 MOL1        0.0590
     21 O            8.3600    1.3624    0.2332 O.3       1 MOL1       -0.1768
     22 C            7.2240    0.7051    0.0461 C.ar      1 MOL1        0.0695
     23 C            5.9768    1.2238   -0.1998 C.ar      1 MOL1       -0.0754
     24 C            1.2164    1.3277   -0.2769 C.3       1 MOL1       -0.0455
     25 C           -0.1116    0.9200    0.4047 C.3       1 MOL1       -0.0701
     26 C           -4.1325   -1.2619    0.1184 C.2       1 MOL1        0.2049
     27 O           -4.2048   -2.4813    0.0998 O.2       1 MOL1       -0.3843
     28 C           -5.3318   -0.4310    0.0880 C.ar      1 MOL1        0.0073
     29 C           -6.6721   -0.7689    0.0458 C.ar      1 MOL1       -0.0566
     30  H         -10.9944    0.4655   -0.0899 H         1 MOL1        0.0618
     31  H          -9.7323    1.6452   -1.0112 H         1 MOL1        0.0618
     32  H          -9.8021    1.6216    0.9478 H         1 MOL1        0.0618
     33  H          -7.8629    2.3041    0.0443 H         1 MOL1        0.0924
     34  H          -5.5543    2.8462    0.1127 H         1 MOL1        0.0908
     35  H          -3.0105    1.6033    1.0733 H         1 MOL1        0.0524
     36  H          -3.0799    1.4933   -0.9054 H         1 MOL1        0.0524
     37  H          -1.8314   -2.0867    0.3408 H         1 MOL1        0.0887
     38  H           0.1155   -1.0262    1.4757 H         1 MOL1        0.0514
     39  H           0.1290   -0.8471   -1.7379 H         1 MOL1        0.0476
     40  H           0.3391   -2.4622   -0.6637 H         1 MOL1        0.0476
     41  H           2.5213   -1.2106   -1.5603 H         1 MOL1        0.0568
     42  H           2.4277   -1.7288    0.3167 H         1 MOL1        0.0568
     43  H           3.6311    2.0831   -0.4159 H         1 MOL1        0.0598
     44  H           3.3948    0.8729   -1.8834 H         1 MOL1        0.0598
     45  H           4.4145   -1.6706   -0.4438 H         1 MOL1        0.0908
     46  H           6.5970   -2.5257    0.0046 H         1 MOL1        0.0924
     47  H          10.2576    0.4886   -0.4311 H         1 MOL1        0.0806
     48  H           9.9389    0.5457    1.5226 H         1 MOL1        0.0806
     49  H           5.8330    2.2117   -0.2562 H         1 MOL1        0.0926
     50  H           1.4847    2.4333    0.1061 H         1 MOL1        0.0568
     51  H           1.0529    1.3740   -1.4653 H         1 MOL1        0.0568
     52  H          -0.9765    1.4473   -0.2304 H         1 MOL1        0.0476
     53  H          -0.1470    1.3468    1.5268 H         1 MOL1        0.0476
     54  H          -6.9530   -1.7288    0.0279 H         1 MOL1        0.0928
@<TRIPOS>BOND
     1      1      2 1 
     2      2      3 1 
     3      3      4 ar
     4      4      5 ar
     5      5      6 ar
     6      6      7 1 
     7      7      8 1 
     8      8      9 2 
     9      8     26 1 
    10      9     10 1 
    11     10     11 1 
    12     11     12 1 
    13     12     13 1 
    14     13     14 1 
    15     13     24 1 
    16     14     15 1 
    17     15     16 ar
    18     16     17 ar
    19     17     18 ar
    20     18     19 1 
    21     19     20 1 
    22     20     21 1 
    23     21     22 1 
    24     22     18 ar
    25     22     23 ar
    26     23     15 ar
    27     24     25 1 
    28     25     10 1 
    29     26     27 2 
    30     26     28 1 
    31     28      6 ar
    32     28     29 ar
    33     29      3 ar
    34      1     30 1 
    35      1     31 1 
    36      1     32 1 
    37      4     33 1 
    38      5     34 1 
    39      7     35 1 
    40      7     36 1 
    41      9     37 1 
    42     10     38 1 
    43     11     39 1 
    44     11     40 1 
    45     12     41 1 
    46     12     42 1 
    47     14     43 1 
    48     14     44 1 
    49     16     45 1 
    50     17     46 1 
    51     20     47 1 
    52     20     48 1 
    53     23     49 1 
    54     24     50 1 
    55     24     51 1 
    56     25     52 1 
    57     25     53 1 
    58     29     54 1 
@<TRIPOS>SUBSTRUCTURE
     1 MOL1         1 MOLECULE          1 A
