# Molecule written by the XED library from Cresset
@<TRIPOS>MOLECULE
CHEMBL94059
    46     49      1
SMALL
USER_CHARGES
@<TRIPOS>ATOM
      1 C            1.3472   -1.5043   -0.2376 C.3       1 MOL1       -0.0186
      2 O            2.2089   -0.3774    0.0201 O.3       1 MOL1       -0.1693
      3 C            3.5008   -0.5612   -0.1020 C.ar      1 MOL1        0.2271
      4 N            4.0545   -1.7216   -0.3365 N.ar      1 MOL1       -0.2746
      5 O            5.4556   -1.4956   -0.3712 O.3       1 MOL1       -0.0859
      6 C            5.6480   -0.1829   -0.1535 C.ar      1 MOL1        0.1014
      7 C            6.8642    0.4712   -0.1048 C.ar      1 MOL1       -0.0790
      8 C            6.8501    1.8253    0.1273 C.ar      1 MOL1       -0.0701
      9 C            5.6527    2.5105    0.3067 C.ar      1 MOL1       -0.1042
     10 C            4.4486    1.8545    0.2592 C.ar      1 MOL1       -0.0558
     11 C            4.4673    0.4874    0.0253 C.ar      1 MOL1        0.0100
     12 C           -0.0627   -1.2663    0.3383 C.3       1 MOL1       -0.0354
     13 C           -0.7808   -0.0735   -0.3227 C.3       1 MOL1       -0.0709
     14 C           -2.1442    0.1151    0.3703 C.3       1 MOL1       -0.0460
     15 N           -3.0019   -1.0812    0.2338 N.3       1 MOL1       -0.2521
     16 C           -4.2874   -0.8795    0.9332 C.3       1 MOL1       -0.0032
     17 C           -5.1949    0.2018    0.3605 C.ar      1 MOL1       -0.0509
     18 C           -5.1576    1.4782    0.8783 C.ar      1 MOL1       -0.0846
     19 C           -5.9764    2.4599    0.3694 C.ar      1 MOL1       -0.0900
     20 C           -6.8416    2.1673   -0.6595 C.ar      1 MOL1       -0.0906
     21 C           -6.8854    0.8935   -1.1782 C.ar      1 MOL1       -0.0900
     22 C           -6.0632   -0.0863   -0.6696 C.ar      1 MOL1       -0.0846
     23 C           -2.3174   -2.2654    0.7914 C.3       1 MOL1       -0.0460
     24 C           -0.9404   -2.5150    0.1404 C.3       1 MOL1       -0.0709
     25  H           1.7900   -2.4861    0.2935 H         1 MOL1        0.0645
     26  H           1.2792   -1.6964   -1.4203 H         1 MOL1        0.0645
     27  H           7.7238   -0.0230   -0.2343 H         1 MOL1        0.0924
     28  H           7.7144    2.3266    0.1676 H         1 MOL1        0.0906
     29  H           5.6697    3.4964    0.4732 H         1 MOL1        0.0906
     30  H           3.5868    2.3453    0.3882 H         1 MOL1        0.0910
     31  H           0.0300   -1.0558    1.5164 H         1 MOL1        0.0506
     32  H          -0.9445   -0.2969   -1.4903 H         1 MOL1        0.0474
     33  H          -0.1335    0.9282   -0.1907 H         1 MOL1        0.0474
     34  H          -2.6775    1.0633   -0.1347 H         1 MOL1        0.0568
     35  H          -1.9480    0.3434    1.5319 H         1 MOL1        0.0568
     36  H          -4.9123   -1.9043    0.8924 H         1 MOL1        0.0598
     37  H          -4.0758   -0.6414    2.0907 H         1 MOL1        0.0598
     38  H          -4.5305    1.6928    1.6272 H         1 MOL1        0.0908
     39  H          -5.9430    3.3852    0.7474 H         1 MOL1        0.0906
     40  H          -7.4381    2.8794   -1.0295 H         1 MOL1        0.0906
     41  H          -7.5150    0.6796   -1.9251 H         1 MOL1        0.0906
     42  H          -6.0975   -1.0111   -1.0482 H         1 MOL1        0.0908
     43  H          -2.1515   -2.1056    1.9690 H         1 MOL1        0.0568
     44  H          -2.9914   -3.2436    0.6209 H         1 MOL1        0.0568
     45  H          -0.4168   -3.4630    0.6573 H         1 MOL1        0.0474
     46  H          -1.0814   -2.7236   -1.0329 H         1 MOL1        0.0474
@<TRIPOS>BOND
     1      1      2 1 
     2      1     12 1 
     3      2      3 1 
     4      3      4 ar
     5      4      5 ar
     6      5      6 ar
     7      6      7 ar
     8      7      8 ar
     9      8      9 ar
    10      9     10 ar
    11     10     11 ar
    12     11      3 ar
    13     11      6 ar
    14     12     13 1 
    15     13     14 1 
    16     14     15 1 
    17     15     16 1 
    18     15     23 1 
    19     16     17 1 
    20     17     18 ar
    21     18     19 ar
    22     19     20 ar
    23     20     21 ar
    24     21     22 ar
    25     22     17 ar
    26     23     24 1 
    27     24     12 1 
    28      1     25 1 
    29      1     26 1 
    30      7     27 1 
    31      8     28 1 
    32      9     29 1 
    33     10     30 1 
    34     12     31 1 
    35     13     32 1 
    36     13     33 1 
    37     14     34 1 
    38     14     35 1 
    39     16     36 1 
    40     16     37 1 
    41     18     38 1 
    42     19     39 1 
    43     20     40 1 
    44     21     41 1 
    45     22     42 1 
    46     23     43 1 
    47     23     44 1 
    48     24     45 1 
    49     24     46 1 
@<TRIPOS>SUBSTRUCTURE
     1 MOL1         1 MOLECULE          1 A
