# Molecule written by the XED library from Cresset
@<TRIPOS>MOLECULE
CHEMBL3818415
    52     55      1
SMALL
USER_CHARGES
@<TRIPOS>ATOM
      1 C            6.7817   -3.3311   -0.1289 C.3       1 MOL1       -0.0471
      2 O            7.0588   -1.9241    0.0252 O.3       1 MOL1       -0.1992
      3 C            6.0364   -1.0649    0.0534 C.ar      1 MOL1        0.0820
      4 C            4.7124   -1.4737   -0.0589 C.ar      1 MOL1       -0.0742
      5 C            3.7102   -0.5383   -0.0282 C.ar      1 MOL1       -0.0408
      6 C            2.2072   -0.7421   -0.1592 C.3       1 MOL1       -0.0043
      7 C            1.6137    0.6485    0.0189 C.2       1 MOL1       -0.0313
      8 C            0.3948    1.1656    0.1833 C.2       1 MOL1       -0.0523
      9 C           -0.9826    0.5320    0.1566 C.3       1 MOL1       -0.0233
     10 C           -1.8718    1.3411   -0.8047 C.3       1 MOL1       -0.0701
     11 C           -3.3332    0.8327   -0.7763 C.3       1 MOL1       -0.0455
     12 N           -3.4967   -0.5729   -0.3368 N.3       1 MOL1       -0.2520
     13 C           -4.7801   -1.1238   -0.8234 C.3       1 MOL1       -0.0032
     14 C           -6.0477   -0.5265   -0.2243 C.ar      1 MOL1       -0.0509
     15 C           -6.5246    0.6971   -0.6424 C.ar      1 MOL1       -0.0846
     16 C           -7.6791    1.2158   -0.1025 C.ar      1 MOL1       -0.0900
     17 C           -8.3688    0.5094    0.8560 C.ar      1 MOL1       -0.0906
     18 C           -7.8994   -0.7139    1.2750 C.ar      1 MOL1       -0.0900
     19 C           -6.7418   -1.2280    0.7367 C.ar      1 MOL1       -0.0846
     20 C           -2.3790   -1.3959   -0.8324 C.3       1 MOL1       -0.0455
     21 C           -1.0113   -0.9588   -0.2517 C.3       1 MOL1       -0.0701
     22 C            2.7613    1.5298    0.1306 C.2       1 MOL1        0.1999
     23 O            2.7406    2.7476    0.2389 O.2       1 MOL1       -0.3896
     24 C            4.0149    0.7959    0.1175 C.ar      1 MOL1       -0.0048
     25 C            5.3253    1.2328    0.2294 C.ar      1 MOL1       -0.0547
     26 C            6.3270    0.2918    0.1957 C.ar      1 MOL1        0.0625
     27 O            7.6273    0.6891    0.3014 O.3       1 MOL1       -0.3817
     28  H           6.1973   -3.5227   -1.1596 H         1 MOL1        0.0618
     29  H           7.8161   -3.9393   -0.1408 H         1 MOL1        0.0618
     30  H           6.1104   -3.7087    0.7912 H         1 MOL1        0.0618
     31  H           4.4892   -2.4426   -0.1666 H         1 MOL1        0.0926
     32  H           2.0185   -1.1480   -1.2722 H         1 MOL1        0.0524
     33  H           1.7778   -1.5107    0.6568 H         1 MOL1        0.0524
     34  H           0.3878    2.1431    0.3405 H         1 MOL1        0.0887
     35  H          -1.4663    0.6372    1.2497 H         1 MOL1        0.0514
     36  H          -1.4193    1.1997   -1.9072 H         1 MOL1        0.0476
     37  H          -1.8432    2.5073   -0.5218 H         1 MOL1        0.0476
     38  H          -3.9759    1.5117   -0.0229 H         1 MOL1        0.0568
     39  H          -3.7741    0.9950   -1.8810 H         1 MOL1        0.0568
     40  H          -4.8354   -1.0244   -2.0181 H         1 MOL1        0.0598
     41  H          -4.8151   -2.2981   -0.5742 H         1 MOL1        0.0598
     42  H          -6.0279    1.2116   -1.3417 H         1 MOL1        0.0908
     43  H          -8.0169    2.1057   -0.4089 H         1 MOL1        0.0906
     44  H          -9.2097    0.8844    1.2469 H         1 MOL1        0.0906
     45  H          -8.4002   -1.2294    1.9703 H         1 MOL1        0.0906
     46  H          -6.4043   -2.1184    1.0420 H         1 MOL1        0.0908
     47  H          -2.3557   -1.2981   -2.0288 H         1 MOL1        0.0568
     48  H          -2.5483   -2.5513   -0.5562 H         1 MOL1        0.0568
     49  H          -0.7374   -1.6168    0.7147 H         1 MOL1        0.0476
     50  H          -0.1978   -1.1601   -1.1067 H         1 MOL1        0.0476
     51  H           5.5352    2.2053    0.3325 H         1 MOL1        0.0928
     52  H           7.7023    1.6885    0.3924 H         1 MOL1        0.3295
@<TRIPOS>BOND
     1      1      2 1 
     2      2      3 1 
     3      3      4 ar
     4      4      5 ar
     5      5      6 1 
     6      6      7 1 
     7      7      8 2 
     8      7     22 1 
     9      8      9 1 
    10      9     10 1 
    11     10     11 1 
    12     11     12 1 
    13     12     13 1 
    14     12     20 1 
    15     13     14 1 
    16     14     15 ar
    17     15     16 ar
    18     16     17 ar
    19     17     18 ar
    20     18     19 ar
    21     19     14 ar
    22     20     21 1 
    23     21      9 1 
    24     22     23 2 
    25     22     24 1 
    26     24      5 ar
    27     24     25 ar
    28     25     26 ar
    29     26      3 ar
    30     26     27 1 
    31      1     28 1 
    32      1     29 1 
    33      1     30 1 
    34      4     31 1 
    35      6     32 1 
    36      6     33 1 
    37      8     34 1 
    38      9     35 1 
    39     10     36 1 
    40     10     37 1 
    41     11     38 1 
    42     11     39 1 
    43     13     40 1 
    44     13     41 1 
    45     15     42 1 
    46     16     43 1 
    47     17     44 1 
    48     18     45 1 
    49     19     46 1 
    50     20     47 1 
    51     20     48 1 
    52     21     49 1 
    53     21     50 1 
    54     25     51 1 
    55     27     52 1 
@<TRIPOS>SUBSTRUCTURE
     1 MOL1         1 MOLECULE          1 A
