# Molecule written by the XED library from Cresset
@<TRIPOS>MOLECULE
CHEMBL1222025
    50     55      1
SMALL
USER_CHARGES
@<TRIPOS>ATOM
      1 O           -0.3359    3.1883   -1.1075 O.3       1 MOL1       -0.4344
      2 C            0.5185    2.0756   -0.8053 C.3       1 MOL1        0.0391
      3 C            1.9479    2.5549   -0.7820 C.2       1 MOL1       -0.0930
      4 C            2.8266    2.2289    0.1417 C.2       1 MOL1       -0.0778
      5 C            4.2812    2.6073    0.2039 C.3       1 MOL1       -0.0387
      6 C            4.9046    1.3142    0.7722 C.3       1 MOL1       -0.0396
      7 N            3.7698    0.3988    0.9891 N.3       1 MOL1       -0.2400
      8 C            3.5891   -0.4632   -0.1985 C.3       1 MOL1       -0.0031
      9 C            2.3902   -1.3861   -0.0692 C.ar      1 MOL1       -0.0599
     10 C            2.4709   -2.6682   -0.5838 C.ar      1 MOL1       -0.0750
     11 C            1.3716   -3.4745   -0.4257 C.ar      1 MOL1        0.0697
     12 O            1.2116   -4.7294   -0.8208 O.3       1 MOL1       -0.1768
     13 C           -0.1173   -5.1867   -0.4295 C.3       1 MOL1        0.0590
     14 O           -0.6549   -4.0059    0.2364 O.3       1 MOL1       -0.1768
     15 C            0.2528   -3.0408    0.2071 C.ar      1 MOL1        0.0695
     16 C            0.1561   -1.7710    0.7194 C.ar      1 MOL1       -0.0759
     17 C            1.2448   -0.9273    0.5659 C.ar      1 MOL1       -0.0576
     18 C            1.1874    0.4980    1.1358 C.3       1 MOL1        0.0181
     19 C            0.1309    1.4979    0.5738 C.3       1 MOL1        0.0405
     20 O           -1.2005    0.9386    0.5312 O.3       1 MOL1       -0.1594
     21 C           -2.2590    1.7719    0.3709 C.2       1 MOL1        0.3089
     22 O           -2.1140    2.9871    0.3824 O.2       1 MOL1       -0.3735
     23 C           -3.6156    1.2023    0.1776 C.ar      1 MOL1        0.0074
     24 C           -4.7180    2.0390    0.0746 C.ar      1 MOL1       -0.0570
     25 C           -5.9783    1.5239   -0.1086 C.ar      1 MOL1       -0.0890
     26 C           -6.1622    0.1621   -0.1936 C.ar      1 MOL1       -0.0747
     27 C           -5.0805   -0.6834   -0.0944 C.ar      1 MOL1       -0.0890
     28 C           -3.8206   -0.1690    0.0895 C.ar      1 MOL1       -0.0570
     29 C            2.5652    1.2189    1.2282 C.3       1 MOL1        0.0252
     30 H            0.3884    1.2586   -1.6740 H         1 MOL1        0.0705
     31 H            0.8529    0.3156    2.2750 H         1 MOL1        0.0555
     32 H            0.1128    2.4223    1.3397 H         1 MOL1        0.0692
     33 H            2.6730    1.7846    2.2816 H         1 MOL1        0.0625
     34  H          -0.1056    3.5963   -1.9978 H         1 MOL1        0.3291
     35  H           2.2394    3.1721   -1.4995 H         1 MOL1        0.0901
     36  H           4.4222    3.4859    1.0103 H         1 MOL1        0.0501
     37  H           4.7089    2.9447   -0.8655 H         1 MOL1        0.0501
     38  H           5.4029    1.5518    1.8382 H         1 MOL1        0.0571
     39  H           5.7481    0.8707    0.0423 H         1 MOL1        0.0571
     40  H           3.4275    0.2371   -1.1590 H         1 MOL1        0.0598
     41  H           4.5789   -1.1231   -0.3601 H         1 MOL1        0.0598
     42  H           3.2952   -2.9950   -1.0460 H         1 MOL1        0.0926
     43  H          -0.0434   -6.1087    0.3347 H         1 MOL1        0.0806
     44  H          -0.7722   -5.4730   -1.3937 H         1 MOL1        0.0806
     45  H          -0.6725   -1.4665    1.1885 H         1 MOL1        0.0926
     46  H          -4.5933    3.0295    0.1341 H         1 MOL1        0.0910
     47  H          -6.7634    2.1391   -0.1808 H         1 MOL1        0.0906
     48  H          -7.0799   -0.2124   -0.3275 H         1 MOL1        0.0906
     49  H          -5.2121   -1.6729   -0.1566 H         1 MOL1        0.0906
     50  H          -3.0416   -0.7918    0.1595 H         1 MOL1        0.0910
@<TRIPOS>BOND
     1      1      2 1 
     2      2      3 1 
     3      3      4 2 
     4      4      5 1 
     5      5      6 1 
     6      6      7 1 
     7      7      8 1 
     8      8      9 1 
     9      9     10 ar
    10     10     11 ar
    11     11     12 1 
    12     12     13 1 
    13     13     14 1 
    14     14     15 1 
    15     15     11 ar
    16     15     16 ar
    17     16     17 ar
    18     17      9 ar
    19     17     18 1 
    20     18     19 1 
    21     18     29 1 
    22     19      2 1 
    23     19     20 1 
    24     20     21 1 
    25     21     22 2 
    26     21     23 1 
    27     23     24 ar
    28     24     25 ar
    29     25     26 ar
    30     26     27 ar
    31     27     28 ar
    32     28     23 ar
    33     29      4 1 
    34     29      7 1 
    35      1     34 1 
    36      2     30 1 
    37      3     35 1 
    38      5     36 1 
    39      5     37 1 
    40      6     38 1 
    41      6     39 1 
    42      8     40 1 
    43      8     41 1 
    44     10     42 1 
    45     13     43 1 
    46     13     44 1 
    47     16     45 1 
    48     18     31 1 
    49     19     32 1 
    50     24     46 1 
    51     25     47 1 
    52     26     48 1 
    53     27     49 1 
    54     28     50 1 
    55     29     33 1 
@<TRIPOS>SUBSTRUCTURE
     1 MOL1         1 MOLECULE          1 A
