# Molecule written by the XED library from Cresset
@<TRIPOS>MOLECULE
CHEMBL589563
    48     51      1
SMALL
USER_CHARGES
@<TRIPOS>ATOM
      1 O            0.1657   -2.0358    0.3796 O.2       1 MOL1       -0.4490
      2 C            0.3287   -0.8516    0.0806 C.2       1 MOL1        0.4237
      3 N           -0.7187   -0.0978   -0.3259 N.am      1 MOL1       -0.3916
      4 C           -2.0751   -0.6634   -0.3089 C.3       1 MOL1        0.0823
      5 C           -3.1575    0.3926   -0.6130 C.3       1 MOL1       -0.0221
      6 N           -4.4854    0.0422   -0.0795 N.3       1 MOL1       -0.2552
      7 C           -5.3989    1.1904   -0.2287 C.3       1 MOL1       -0.0473
      8 C           -6.7845    0.8820    0.3729 C.3       1 MOL1       -0.0785
      9 C           -7.3848   -0.3539   -0.3225 C.3       1 MOL1       -0.0843
     10 C           -6.4048   -1.5358   -0.2044 C.3       1 MOL1       -0.0785
     11 C           -5.0329   -1.1342   -0.7837 C.3       1 MOL1       -0.0473
     12 N            1.5716   -0.2878    0.1104 N.am      1 MOL1       -0.0610
     13 C            2.7267   -1.1076    0.0841 C.ar      1 MOL1        0.0828
     14 C            2.8093   -2.2570    0.8521 C.ar      1 MOL1       -0.0976
     15 C            3.9318   -3.0521    0.8103 C.ar      1 MOL1       -0.0931
     16 C            4.9940   -2.7143    0.0018 C.ar      1 MOL1       -0.1139
     17 C            4.9372   -1.5733   -0.7666 C.ar      1 MOL1       -0.0740
     18 C            3.8133   -0.7851   -0.7173 C.ar      1 MOL1        0.0260
     19 S            3.7497    0.7117   -1.7016 S.3       1 MOL1       -0.1317
     20 C            2.7243    1.7300   -0.6424 C.ar      1 MOL1        0.0260
     21 C            2.9197    3.0894   -0.6180 C.ar      1 MOL1       -0.0740
     22 C            2.1500    3.8656    0.2196 C.ar      1 MOL1       -0.1139
     23 C            1.1997    3.2769    1.0238 C.ar      1 MOL1       -0.0931
     24 C            1.0094    1.9144    0.9911 C.ar      1 MOL1       -0.0976
     25 C            1.7651    1.1157    0.1489 C.ar      1 MOL1        0.0828
     26  H          -0.5901    0.7220   -0.6154 H         1 MOL1        0.2045
     27  H          -2.2793   -1.1247    0.7797 H         1 MOL1        0.0600
     28  H          -2.1210   -1.5401   -1.1267 H         1 MOL1        0.0600
     29  H          -2.7972    1.4109   -0.0892 H         1 MOL1        0.0581
     30  H          -3.2253    0.5734   -1.7974 H         1 MOL1        0.0581
     31  H          -5.5236    1.4451   -1.3947 H         1 MOL1        0.0568
     32  H          -4.9561    2.1509    0.3383 H         1 MOL1        0.0568
     33  H          -7.5110    1.8244    0.2177 H         1 MOL1        0.0471
     34  H          -6.6639    0.6590    1.5458 H         1 MOL1        0.0471
     35  H          -8.4309   -0.6403    0.1911 H         1 MOL1        0.0460
     36  H          -7.5641   -0.1050   -1.4826 H         1 MOL1        0.0460
     37  H          -6.2730   -1.8264    0.9525 H         1 MOL1        0.0471
     38  H          -6.8375   -2.4799   -0.8056 H         1 MOL1        0.0471
     39  H          -5.1531   -0.8842   -1.9512 H         1 MOL1        0.0568
     40  H          -4.3012   -2.0748   -0.6502 H         1 MOL1        0.0568
     41  H           2.0441   -2.5142    1.4420 H         1 MOL1        0.0919
     42  H           3.9758   -3.8803    1.3691 H         1 MOL1        0.0906
     43  H           5.8067   -3.2962   -0.0259 H         1 MOL1        0.0906
     44  H           5.7067   -1.3199   -1.3528 H         1 MOL1        0.0925
     45  H           3.6165    3.5103   -1.1988 H         1 MOL1        0.0925
     46  H           2.2834    4.8562    0.2463 H         1 MOL1        0.0906
     47  H           0.6447    3.8423    1.6341 H         1 MOL1        0.0906
     48  H           0.3157    1.4973    1.5784 H         1 MOL1        0.0919
@<TRIPOS>BOND
     1      1      2 2 
     2      2      3 am
     3      2     12 am
     4      3      4 1 
     5      4      5 1 
     6      5      6 1 
     7      6      7 1 
     8      7      8 1 
     9      8      9 1 
    10      9     10 1 
    11     10     11 1 
    12     11      6 1 
    13     12     13 1 
    14     13     14 ar
    15     14     15 ar
    16     15     16 ar
    17     16     17 ar
    18     17     18 ar
    19     18     13 ar
    20     18     19 1 
    21     19     20 1 
    22     20     21 ar
    23     21     22 ar
    24     22     23 ar
    25     23     24 ar
    26     24     25 ar
    27     25     12 1 
    28     25     20 ar
    29      3     26 1 
    30      4     27 1 
    31      4     28 1 
    32      5     29 1 
    33      5     30 1 
    34      7     31 1 
    35      7     32 1 
    36      8     33 1 
    37      8     34 1 
    38      9     35 1 
    39      9     36 1 
    40     10     37 1 
    41     10     38 1 
    42     11     39 1 
    43     11     40 1 
    44     14     41 1 
    45     15     42 1 
    46     16     43 1 
    47     17     44 1 
    48     21     45 1 
    49     22     46 1 
    50     23     47 1 
    51     24     48 1 
@<TRIPOS>SUBSTRUCTURE
     1 MOL1         1 MOLECULE          1 A
