# Molecule written by the XED library from Cresset
@<TRIPOS>MOLECULE
CHEMBL2312573
    45     49      1
SMALL
USER_CHARGES
@<TRIPOS>ATOM
      1 O           -7.4192    0.6190   -0.4155 O.3       1 MOL1       -0.3844
      2 C           -6.1250    0.2902   -0.1539 C.ar      1 MOL1        0.0502
      3 C           -5.1834    1.2789    0.0472 C.ar      1 MOL1       -0.0991
      4 C           -3.8780    0.9396    0.3132 C.ar      1 MOL1       -0.0767
      5 C           -3.4823   -0.3803    0.3793 C.ar      1 MOL1       -0.0556
      6 C           -2.0249   -0.7268    0.6924 C.3       1 MOL1        0.0336
      7 C           -0.9422    0.3638    0.4910 C.3       1 MOL1       -0.0138
      8 C            0.2886   -0.3768    0.0161 C.2       1 MOL1        0.0225
      9 N           -0.0513   -1.5504   -0.3957 N.2       1 MOL1       -0.2366
     10 N           -1.3795   -1.7477   -0.1475 N.pl3     1 MOL1       -0.2286
     11 C            1.7020    0.0615   -0.0126 C.ar      1 MOL1        0.0020
     12 C            2.7261   -0.9054   -0.0168 C.ar      1 MOL1       -0.0099
     13 C            2.4632   -2.2977    0.0036 C.ar      1 MOL1       -0.0807
     14 C            3.4585   -3.2085    0.0087 C.ar      1 MOL1       -0.0893
     15 C            4.8075   -2.8013   -0.0039 C.ar      1 MOL1       -0.0897
     16 C            5.1175   -1.4922   -0.0199 C.ar      1 MOL1       -0.0811
     17 C            4.0874   -0.5216   -0.0246 C.ar      1 MOL1       -0.0192
     18 C            4.4398    0.8118   -0.0318 C.ar      1 MOL1       -0.0712
     19 C            3.4542    1.7771   -0.0323 C.ar      1 MOL1       -0.0192
     20 C            3.8603    3.1331   -0.0430 C.ar      1 MOL1       -0.0811
     21 C            2.9383    4.1120   -0.0531 C.ar      1 MOL1       -0.0897
     22 C            1.5685    3.7863   -0.0535 C.ar      1 MOL1       -0.0893
     23 C            1.1651    2.4993   -0.0395 C.ar      1 MOL1       -0.0807
     24 C            2.0839    1.4195   -0.0240 C.ar      1 MOL1       -0.0099
     25 C           -4.4361   -1.3692    0.1889 C.ar      1 MOL1        0.0583
     26 O           -4.0938   -2.6835    0.2764 O.3       1 MOL1       -0.3839
     27 C           -5.7472   -1.0335   -0.0821 C.ar      1 MOL1       -0.0770
     28 H           -1.9653   -1.1058    1.8293 H         1 MOL1        0.0635
     29  H          -7.5504    1.6165   -0.4301 H         1 MOL1        0.3295
     30  H          -5.4504    2.2415    0.0014 H         1 MOL1        0.0924
     31  H          -3.2065    1.6644    0.4639 H         1 MOL1        0.0908
     32  H          -1.3022    1.0653   -0.4136 H         1 MOL1        0.0518
     33  H          -0.7534    0.9846    1.5006 H         1 MOL1        0.0518
     34  H          -1.8572   -2.1613   -0.7607 H         1 MOL1        0.2789
     35  H           1.5162   -2.6162    0.0153 H         1 MOL1        0.0910
     36  H           3.2366   -4.1835    0.0225 H         1 MOL1        0.0906
     37  H           5.5359   -3.4865    0.0001 H         1 MOL1        0.0906
     38  H           6.0754   -1.2049   -0.0271 H         1 MOL1        0.0910
     39  H           5.4040    1.0773   -0.0364 H         1 MOL1        0.0914
     40  H           4.8334    3.3634   -0.0440 H         1 MOL1        0.0910
     41  H           3.2249    5.0699   -0.0614 H         1 MOL1        0.0906
     42  H           0.8866    4.5176   -0.0644 H         1 MOL1        0.0906
     43  H           0.1896    2.3150   -0.0417 H         1 MOL1        0.0910
     44  H          -3.1806   -2.7996    0.6813 H         1 MOL1        0.3295
     45  H          -6.4270   -1.7534   -0.2221 H         1 MOL1        0.0942
@<TRIPOS>BOND
     1      1      2 1 
     2      2      3 ar
     3      3      4 ar
     4      4      5 ar
     5      5      6 1 
     6      5     25 ar
     7      6      7 1 
     8      7      8 1 
     9      8      9 2 
    10      8     11 1 
    11      9     10 1 
    12     10      6 1 
    13     11     12 ar
    14     12     13 ar
    15     13     14 ar
    16     14     15 ar
    17     15     16 ar
    18     16     17 ar
    19     17     12 ar
    20     17     18 ar
    21     18     19 ar
    22     19     20 ar
    23     20     21 ar
    24     21     22 ar
    25     22     23 ar
    26     23     24 ar
    27     24     11 ar
    28     24     19 ar
    29     25     26 1 
    30     25     27 ar
    31     27      2 ar
    32      1     29 1 
    33      3     30 1 
    34      4     31 1 
    35      6     28 1 
    36      7     32 1 
    37      7     33 1 
    38     10     34 1 
    39     13     35 1 
    40     14     36 1 
    41     15     37 1 
    42     16     38 1 
    43     18     39 1 
    44     20     40 1 
    45     21     41 1 
    46     22     42 1 
    47     23     43 1 
    48     26     44 1 
    49     27     45 1 
@<TRIPOS>SUBSTRUCTURE
     1 MOL1         1 MOLECULE          1 A
