# Molecule written by the XED library from Cresset
@<TRIPOS>MOLECULE
CHEMBL3819531
    55     58      1
SMALL
USER_CHARGES
@<TRIPOS>ATOM
      1 C           -9.7895   -1.1345    0.3985 C.3       1 MOL1       -0.0471
      2 O           -8.4257   -1.5628    0.2077 O.3       1 MOL1       -0.2037
      3 C           -7.4639   -0.6349    0.1026 C.ar      1 MOL1        0.0592
      4 C           -7.7104    0.7212    0.2423 C.ar      1 MOL1       -0.0839
      5 C           -6.6877    1.6288    0.1099 C.ar      1 MOL1       -0.0862
      6 C           -5.4106    1.1961   -0.1652 C.ar      1 MOL1       -0.1014
      7 C           -5.1396   -0.1491   -0.3017 C.ar      1 MOL1       -0.0479
      8 C           -3.7537   -0.6987   -0.6399 C.3       1 MOL1       -0.0030
      9 N           -2.5477   -0.1687    0.0359 N.3       1 MOL1       -0.2520
     10 C           -1.4053   -1.0611   -0.2379 C.3       1 MOL1       -0.0455
     11 C           -0.0854   -0.6310    0.4436 C.3       1 MOL1       -0.0701
     12 C            0.0995    0.9040    0.4759 C.3       1 MOL1       -0.0233
     13 C           -0.7589    1.5597   -0.6194 C.3       1 MOL1       -0.0701
     14 C           -2.2515    1.2138   -0.4164 C.3       1 MOL1       -0.0455
     15 C            1.5188    1.4148    0.3281 C.2       1 MOL1       -0.0522
     16 C            2.6930    0.7992    0.1716 C.2       1 MOL1       -0.0313
     17 C            3.1947   -0.6372    0.1167 C.3       1 MOL1       -0.0039
     18 C            4.7103   -0.5201    0.0777 C.ar      1 MOL1       -0.0261
     19 C            5.6471   -1.5166    0.0535 C.ar      1 MOL1       -0.0769
     20 C            6.9995   -1.1879   -0.0030 C.ar      1 MOL1        0.0761
     21 O            7.9571   -2.1141   -0.0316 O.3       1 MOL1       -0.2006
     22 C            7.5799   -3.5063   -0.0077 C.3       1 MOL1       -0.0471
     23 C            7.3754    0.1507   -0.0347 C.ar      1 MOL1       -0.0813
     24 C            6.4399    1.1537   -0.0096 C.ar      1 MOL1       -0.0567
     25 C            5.1013    0.7993    0.0487 C.ar      1 MOL1       -0.0065
     26 C            3.8956    1.6096    0.0943 C.2       1 MOL1        0.1997
     27 O            3.9511    2.8309    0.0753 O.2       1 MOL1       -0.3897
     28 C           -6.1731   -1.0499   -0.1650 C.ar      1 MOL1       -0.0782
     29  H         -10.5023   -2.0990    0.4367 H         1 MOL1        0.0618
     30  H         -10.1320   -0.4298   -0.5113 H         1 MOL1        0.0618
     31  H          -9.8844   -0.5334    1.4327 H         1 MOL1        0.0618
     32  H          -8.6359    1.0449    0.4364 H         1 MOL1        0.0924
     33  H          -6.8727    2.6065    0.2090 H         1 MOL1        0.0906
     34  H          -4.6781    1.8657   -0.2712 H         1 MOL1        0.0908
     35  H          -3.6000   -0.6249   -1.8278 H         1 MOL1        0.0598
     36  H          -3.8005   -1.8710   -0.3834 H         1 MOL1        0.0598
     37  H          -1.6429   -2.1777    0.1329 H         1 MOL1        0.0568
     38  H          -1.2457   -1.0903   -1.4275 H         1 MOL1        0.0568
     39  H          -0.0433   -1.0590    1.5649 H         1 MOL1        0.0476
     40  H           0.7836   -1.1455   -0.1956 H         1 MOL1        0.0476
     41  H          -0.3207    1.3082    1.5254 H         1 MOL1        0.0514
     42  H          -0.3946    1.1599   -1.6903 H         1 MOL1        0.0476
     43  H          -0.6198    2.7514   -0.5864 H         1 MOL1        0.0476
     44  H          -2.6618    1.9499    0.4380 H         1 MOL1        0.0568
     45  H          -2.8035    1.4848   -1.4473 H         1 MOL1        0.0568
     46  H           1.5850    2.4014    0.3501 H         1 MOL1        0.0887
     47  H           2.8684   -1.1632   -0.9114 H         1 MOL1        0.0524
     48  H           2.8329   -1.2709    1.0697 H         1 MOL1        0.0524
     49  H           5.3592   -2.4739    0.0731 H         1 MOL1        0.0926
     50  H           6.8908   -3.7599   -0.9573 H         1 MOL1        0.0618
     51  H           8.5685   -4.1855   -0.0434 H         1 MOL1        0.0618
     52  H           6.9712   -3.7439    0.9990 H         1 MOL1        0.0618
     53  H           8.3460    0.3891   -0.0768 H         1 MOL1        0.0924
     54  H           6.7163    2.1144   -0.0321 H         1 MOL1        0.0910
     55  H          -5.9881   -2.0272   -0.2700 H         1 MOL1        0.0926
@<TRIPOS>BOND
     1      1      2 1 
     2      2      3 1 
     3      3      4 ar
     4      4      5 ar
     5      5      6 ar
     6      6      7 ar
     7      7      8 1 
     8      7     28 ar
     9      8      9 1 
    10      9     10 1 
    11     10     11 1 
    12     11     12 1 
    13     12     13 1 
    14     12     15 1 
    15     13     14 1 
    16     14      9 1 
    17     15     16 2 
    18     16     17 1 
    19     16     26 1 
    20     17     18 1 
    21     18     19 ar
    22     19     20 ar
    23     20     21 1 
    24     20     23 ar
    25     21     22 1 
    26     23     24 ar
    27     24     25 ar
    28     25     18 ar
    29     25     26 1 
    30     26     27 2 
    31     28      3 ar
    32      1     29 1 
    33      1     30 1 
    34      1     31 1 
    35      4     32 1 
    36      5     33 1 
    37      6     34 1 
    38      8     35 1 
    39      8     36 1 
    40     10     37 1 
    41     10     38 1 
    42     11     39 1 
    43     11     40 1 
    44     12     41 1 
    45     13     42 1 
    46     13     43 1 
    47     14     44 1 
    48     14     45 1 
    49     15     46 1 
    50     17     47 1 
    51     17     48 1 
    52     19     49 1 
    53     22     50 1 
    54     22     51 1 
    55     22     52 1 
    56     23     53 1 
    57     24     54 1 
    58     28     55 1 
@<TRIPOS>SUBSTRUCTURE
     1 MOL1         1 MOLECULE          1 A
