# Molecule written by the XED library from Cresset
@<TRIPOS>MOLECULE
CHEMBL92629
    47     50      1
SMALL
USER_CHARGES
@<TRIPOS>ATOM
      1 C            1.2556   -1.3911    0.5106 C.3       1 MOL1       -0.0394
      2 N            2.2184   -0.3077    0.2593 N.pl3     1 MOL1       -0.2573
      3 C            3.5763   -0.5488    0.2144 C.ar      1 MOL1        0.1689
      4 N            4.1171   -1.7355    0.3355 N.ar      1 MOL1       -0.3286
      5 O            5.5195   -1.5374    0.2323 O.3       1 MOL1       -0.0924
      6 C            5.7221   -0.2189    0.0559 C.ar      1 MOL1        0.0962
      7 C            6.9427    0.4126   -0.0876 C.ar      1 MOL1       -0.0793
      8 C            6.9393    1.7764   -0.2571 C.ar      1 MOL1       -0.0737
      9 C            5.7477    2.4937   -0.2836 C.ar      1 MOL1       -0.1051
     10 C            4.5383    1.8610   -0.1411 C.ar      1 MOL1       -0.0593
     11 C            4.5492    0.4859    0.0302 C.ar      1 MOL1        0.0021
     12 C           -0.0880   -1.1596   -0.2082 C.3       1 MOL1       -0.0438
     13 C           -0.8796   -0.0022    0.4339 C.3       1 MOL1       -0.0723
     14 C           -2.2113    0.1762   -0.3197 C.3       1 MOL1       -0.0461
     15 N           -3.0369   -1.0476   -0.2667 N.3       1 MOL1       -0.2521
     16 C           -4.3046   -0.8487   -0.9984 C.3       1 MOL1       -0.0032
     17 C           -5.2506    0.1929   -0.4127 C.ar      1 MOL1       -0.0509
     18 C           -5.2584    1.4742   -0.9193 C.ar      1 MOL1       -0.0846
     19 C           -6.1075    2.4241   -0.3997 C.ar      1 MOL1       -0.0900
     20 C           -6.9587    2.0952    0.6297 C.ar      1 MOL1       -0.0906
     21 C           -6.9579    0.8164    1.1379 C.ar      1 MOL1       -0.0900
     22 C           -6.1057   -0.1318    0.6179 C.ar      1 MOL1       -0.0846
     23 C           -2.2969   -2.1814   -0.8550 C.3       1 MOL1       -0.0461
     24 C           -0.9533   -2.4323   -0.1374 C.3       1 MOL1       -0.0723
     25  H           1.7164   -2.4297    0.1226 H         1 MOL1        0.0571
     26  H           1.0570   -1.4736    1.6912 H         1 MOL1        0.0571
     27  H           1.9265    0.5150    0.1530 H         1 MOL1        0.2761
     28  H           7.7985   -0.1044   -0.0683 H         1 MOL1        0.0924
     29  H           7.8075    2.2612   -0.3630 H         1 MOL1        0.0906
     30  H           5.7726    3.4856   -0.4081 H         1 MOL1        0.0906
     31  H           3.6799    2.3737   -0.1594 H         1 MOL1        0.0910
     32  H           0.1262   -0.9034   -1.3607 H         1 MOL1        0.0498
     33  H          -0.2703    1.0281    0.3648 H         1 MOL1        0.0474
     34  H          -1.1015   -0.2585    1.5851 H         1 MOL1        0.0474
     35  H          -1.9690    0.4536   -1.4617 H         1 MOL1        0.0568
     36  H          -2.7955    1.0890    0.1944 H         1 MOL1        0.0568
     37  H          -4.9093   -1.8862   -1.0140 H         1 MOL1        0.0598
     38  H          -4.0569   -0.5633   -2.1381 H         1 MOL1        0.0598
     39  H          -4.6414    1.7158   -1.6681 H         1 MOL1        0.0908
     40  H          -6.1059    3.3528   -0.7704 H         1 MOL1        0.0906
     41  H          -7.5772    2.7840    1.0079 H         1 MOL1        0.0906
     42  H          -7.5768    0.5755    1.8855 H         1 MOL1        0.0906
     43  H          -6.1083   -1.0603    0.9893 H         1 MOL1        0.0908
     44  H          -2.9524   -3.1837   -0.7784 H         1 MOL1        0.0568
     45  H          -2.0748   -1.9474   -2.0108 H         1 MOL1        0.0568
     46  H          -1.1615   -2.7088    1.0116 H         1 MOL1        0.0474
     47  H          -0.3811   -3.3429   -0.6698 H         1 MOL1        0.0474
@<TRIPOS>BOND
     1      1      2 1 
     2      1     12 1 
     3      2      3 1 
     4      3      4 ar
     5      4      5 ar
     6      5      6 ar
     7      6      7 ar
     8      7      8 ar
     9      8      9 ar
    10      9     10 ar
    11     10     11 ar
    12     11      3 ar
    13     11      6 ar
    14     12     13 1 
    15     13     14 1 
    16     14     15 1 
    17     15     16 1 
    18     15     23 1 
    19     16     17 1 
    20     17     18 ar
    21     18     19 ar
    22     19     20 ar
    23     20     21 ar
    24     21     22 ar
    25     22     17 ar
    26     23     24 1 
    27     24     12 1 
    28      1     25 1 
    29      1     26 1 
    30      2     27 1 
    31      7     28 1 
    32      8     29 1 
    33      9     30 1 
    34     10     31 1 
    35     12     32 1 
    36     13     33 1 
    37     13     34 1 
    38     14     35 1 
    39     14     36 1 
    40     16     37 1 
    41     16     38 1 
    42     18     39 1 
    43     19     40 1 
    44     20     41 1 
    45     21     42 1 
    46     22     43 1 
    47     23     44 1 
    48     23     45 1 
    49     24     46 1 
    50     24     47 1 
@<TRIPOS>SUBSTRUCTURE
     1 MOL1         1 MOLECULE          1 A
