# Molecule written by the XED library from Cresset
@<TRIPOS>MOLECULE
CHEMBL92775
    49     52      1
SMALL
USER_CHARGES
@<TRIPOS>ATOM
      1 N            9.4667   -1.0785    0.0657 N.1       1 MOL1       -0.4809
      2 C            8.3554   -0.8467    0.0414 C.1       1 MOL1        0.3877
      3 C            6.9468   -0.5525    0.0123 C.ar      1 MOL1        0.0326
      4 C            6.0184   -1.6052   -0.0439 C.ar      1 MOL1       -0.0720
      5 C            4.6750   -1.3552   -0.0709 C.ar      1 MOL1       -0.0552
      6 C            4.2607   -0.0275   -0.0401 C.ar      1 MOL1        0.0072
      7 C            3.0102    0.6537   -0.0597 C.ar      1 MOL1        0.1114
      8 C            1.6522   -0.0157   -0.1615 C.3       1 MOL1       -0.0333
      9 C            0.4774    0.7800    0.4433 C.3       1 MOL1       -0.0806
     10 C           -0.8805    0.2904   -0.1028 C.3       1 MOL1       -0.0563
     11 C           -2.0128    1.2463    0.3158 C.3       1 MOL1       -0.0743
     12 C           -3.3246    0.7784   -0.3490 C.3       1 MOL1       -0.0462
     13 N           -3.6945   -0.6078    0.0129 N.3       1 MOL1       -0.2521
     14 C           -4.9016   -1.0295   -0.7287 C.3       1 MOL1       -0.0032
     15 C           -6.2345   -0.4287   -0.3043 C.ar      1 MOL1       -0.0509
     16 C           -6.6390    0.8106   -0.7500 C.ar      1 MOL1       -0.0846
     17 C           -7.8652    1.3150   -0.3835 C.ar      1 MOL1       -0.0900
     18 C           -8.6973    0.5793    0.4277 C.ar      1 MOL1       -0.0906
     19 C           -8.2977   -0.6579    0.8792 C.ar      1 MOL1       -0.0900
     20 C           -7.0684   -1.1575    0.5143 C.ar      1 MOL1       -0.0846
     21 C           -2.5837   -1.5311   -0.2939 C.3       1 MOL1       -0.0462
     22 C           -1.2648   -1.1184    0.3919 C.3       1 MOL1       -0.0743
     23 N            3.1655    1.9421   -0.0116 N.ar      1 MOL1       -0.2585
     24 O            4.5603    2.1972    0.0415 O.3       1 MOL1       -0.0818
     25 C            5.1673    1.0005    0.0175 C.ar      1 MOL1        0.1075
     26 C            6.5246    0.7690    0.0426 C.ar      1 MOL1       -0.0488
     27  H           6.3440   -2.5501   -0.0647 H         1 MOL1        0.0914
     28  H           4.0108   -2.1015   -0.1121 H         1 MOL1        0.0910
     29  H           1.7313   -1.0776    0.3911 H         1 MOL1        0.0503
     30  H           1.4457   -0.2000   -1.3295 H         1 MOL1        0.0503
     31  H           0.6085    1.9283    0.1220 H         1 MOL1        0.0465
     32  H           0.5003    0.7080    1.6407 H         1 MOL1        0.0465
     33  H          -0.8395    0.2796   -1.3016 H         1 MOL1        0.0488
     34  H          -2.1300    1.2321    1.5098 H         1 MOL1        0.0474
     35  H          -1.7670    2.3611   -0.0538 H         1 MOL1        0.0474
     36  H          -4.1970    1.5281   -0.0094 H         1 MOL1        0.0568
     37  H          -3.1776    0.8626   -1.5374 H         1 MOL1        0.0568
     38  H          -4.7518   -0.8330   -1.9037 H         1 MOL1        0.0598
     39  H          -5.0250   -2.2174   -0.6001 H         1 MOL1        0.0598
     40  H          -6.0394    1.3454   -1.3459 H         1 MOL1        0.0908
     41  H          -8.1538    2.2150   -0.7109 H         1 MOL1        0.0906
     42  H          -9.5920    0.9426    0.6874 H         1 MOL1        0.0906
     43  H          -8.9008   -1.1945    1.4689 H         1 MOL1        0.0906
     44  H          -6.7814   -2.0588    0.8392 H         1 MOL1        0.0908
     45  H          -2.4099   -1.5514   -1.4818 H         1 MOL1        0.0568
     46  H          -2.8564   -2.6398    0.0779 H         1 MOL1        0.0568
     47  H          -1.4195   -1.1045    1.5820 H         1 MOL1        0.0474
     48  H          -0.4179   -1.9195    0.1096 H         1 MOL1        0.0474
     49  H           7.1791    1.5239    0.0808 H         1 MOL1        0.0932
@<TRIPOS>BOND
     1      1      2 3 
     2      2      3 1 
     3      3      4 ar
     4      4      5 ar
     5      5      6 ar
     6      6      7 ar
     7      7      8 1 
     8      7     23 ar
     9      8      9 1 
    10      9     10 1 
    11     10     11 1 
    12     11     12 1 
    13     12     13 1 
    14     13     14 1 
    15     13     21 1 
    16     14     15 1 
    17     15     16 ar
    18     16     17 ar
    19     17     18 ar
    20     18     19 ar
    21     19     20 ar
    22     20     15 ar
    23     21     22 1 
    24     22     10 1 
    25     23     24 ar
    26     24     25 ar
    27     25      6 ar
    28     25     26 ar
    29     26      3 ar
    30      4     27 1 
    31      5     28 1 
    32      8     29 1 
    33      8     30 1 
    34      9     31 1 
    35      9     32 1 
    36     10     33 1 
    37     11     34 1 
    38     11     35 1 
    39     12     36 1 
    40     12     37 1 
    41     14     38 1 
    42     14     39 1 
    43     16     40 1 
    44     17     41 1 
    45     18     42 1 
    46     19     43 1 
    47     20     44 1 
    48     21     45 1 
    49     21     46 1 
    50     22     47 1 
    51     22     48 1 
    52     26     49 1 
@<TRIPOS>SUBSTRUCTURE
     1 MOL1         1 MOLECULE          1 A
