# Molecule written by the XED library from Cresset
@<TRIPOS>MOLECULE
CHEMBL514186
    55     58      1
SMALL
USER_CHARGES
@<TRIPOS>ATOM
      1 C            5.9985   -3.6883    0.0358 C.3       1 MOL1       -0.0471
      2 O            6.4495   -2.3188    0.0283 O.3       1 MOL1       -0.1993
      3 C            5.5433   -1.3386   -0.0540 C.ar      1 MOL1        0.0824
      4 C            4.1805   -1.6019   -0.1377 C.ar      1 MOL1       -0.0742
      5 C            3.2893   -0.5642   -0.2147 C.ar      1 MOL1       -0.0420
      6 C            1.7707   -0.6013   -0.3192 C.3       1 MOL1       -0.0041
      7 C            1.3491    0.8593   -0.2362 C.2       1 MOL1       -0.0323
      8 C            0.2054    1.5302    0.0051 C.2       1 MOL1       -0.0234
      9 C           -1.1075    0.8800    0.1917 C.ar      1 MOL1       -0.0260
     10 C           -2.1047    1.5944    0.8346 C.ar      1 MOL1       -0.0703
     11 C           -3.3339    1.0261    1.0592 C.ar      1 MOL1       -0.0831
     12 C           -3.5996   -0.2585    0.6339 C.ar      1 MOL1       -0.0406
     13 C           -4.9524   -0.9061    0.9057 C.3       1 MOL1       -0.0025
     14 N           -6.0277   -0.6138   -0.0640 N.3       1 MOL1       -0.2521
     15 C           -6.4956    0.7806    0.0850 C.3       1 MOL1       -0.0469
     16 C           -7.6181    1.1195   -0.9160 C.3       1 MOL1       -0.0785
     17 C           -8.8002    0.1566   -0.7047 C.3       1 MOL1       -0.0843
     18 C           -8.3043   -1.2940   -0.8447 C.3       1 MOL1       -0.0785
     19 C           -7.1513   -1.5466    0.1480 C.3       1 MOL1       -0.0469
     20 C           -2.6158   -0.9682   -0.0226 C.ar      1 MOL1       -0.0831
     21 C           -1.3793   -0.4092   -0.2397 C.ar      1 MOL1       -0.0703
     22 C            2.5842    1.6027   -0.2702 C.2       1 MOL1        0.1921
     23 O            2.6972    2.8208   -0.3123 O.2       1 MOL1       -0.3952
     24 C            3.7473    0.7315   -0.2109 C.ar      1 MOL1       -0.0045
     25 C            5.0995    1.0232   -0.1336 C.ar      1 MOL1       -0.0552
     26 C            6.0023   -0.0177   -0.0527 C.ar      1 MOL1        0.0721
     27 O            7.3282    0.1966    0.0336 O.3       1 MOL1       -0.2025
     28 C            7.8138    1.5541    0.0596 C.3       1 MOL1       -0.0471
     29  H           5.2748   -3.8695    0.9758 H         1 MOL1        0.0618
     30  H           5.4068   -3.9239   -0.9813 H         1 MOL1        0.0618
     31  H           6.9477   -4.4176    0.1204 H         1 MOL1        0.0618
     32  H           3.8470   -2.5442   -0.1411 H         1 MOL1        0.0926
     33  H           1.2681   -1.2512    0.5554 H         1 MOL1        0.0524
     34  H           1.4733   -1.0456   -1.3936 H         1 MOL1        0.0524
     35  H           0.2549    2.5160    0.0924 H         1 MOL1        0.0912
     36  H          -1.9246    2.5274    1.1461 H         1 MOL1        0.0910
     37  H          -4.0419    1.5474    1.5356 H         1 MOL1        0.0908
     38  H          -4.7527   -2.0905    0.9097 H         1 MOL1        0.0598
     39  H          -5.3152   -0.6170    2.0131 H         1 MOL1        0.0598
     40  H          -5.5884    1.5386   -0.1146 H         1 MOL1        0.0568
     41  H          -6.9179    0.9511    1.1953 H         1 MOL1        0.0568
     42  H          -7.2032    1.0028   -2.0359 H         1 MOL1        0.0471
     43  H          -7.9849    2.2486   -0.7405 H         1 MOL1        0.0471
     44  H          -9.6545    0.3757   -1.5184 H         1 MOL1        0.0460
     45  H          -9.2471    0.3165    0.3976 H         1 MOL1        0.0460
     46  H          -9.2068   -2.0504   -0.6132 H         1 MOL1        0.0471
     47  H          -7.9108   -1.4720   -1.9641 H         1 MOL1        0.0471
     48  H          -7.5623   -1.4129    1.2675 H         1 MOL1        0.0568
     49  H          -6.7838   -2.6789   -0.0035 H         1 MOL1        0.0568
     50  H          -2.8007   -1.9001   -0.3349 H         1 MOL1        0.0908
     51  H          -0.6707   -0.9365   -0.7088 H         1 MOL1        0.0910
     52  H           5.4118    1.9729   -0.1301 H         1 MOL1        0.0928
     53  H           9.0102    1.5473    0.1527 H         1 MOL1        0.0618
     54  H           7.3453    2.1326    1.0012 H         1 MOL1        0.0618
     55  H           7.4963    2.1137   -0.9533 H         1 MOL1        0.0618
@<TRIPOS>BOND
     1      1      2 1 
     2      2      3 1 
     3      3      4 ar
     4      4      5 ar
     5      5      6 1 
     6      6      7 1 
     7      7      8 2 
     8      7     22 1 
     9      8      9 1 
    10      9     10 ar
    11     10     11 ar
    12     11     12 ar
    13     12     13 1 
    14     12     20 ar
    15     13     14 1 
    16     14     15 1 
    17     15     16 1 
    18     16     17 1 
    19     17     18 1 
    20     18     19 1 
    21     19     14 1 
    22     20     21 ar
    23     21      9 ar
    24     22     23 2 
    25     22     24 1 
    26     24      5 ar
    27     24     25 ar
    28     25     26 ar
    29     26      3 ar
    30     26     27 1 
    31     27     28 1 
    32      1     29 1 
    33      1     30 1 
    34      1     31 1 
    35      4     32 1 
    36      6     33 1 
    37      6     34 1 
    38      8     35 1 
    39     10     36 1 
    40     11     37 1 
    41     13     38 1 
    42     13     39 1 
    43     15     40 1 
    44     15     41 1 
    45     16     42 1 
    46     16     43 1 
    47     17     44 1 
    48     17     45 1 
    49     18     46 1 
    50     18     47 1 
    51     19     48 1 
    52     19     49 1 
    53     20     50 1 
    54     21     51 1 
    55     25     52 1 
    56     28     53 1 
    57     28     54 1 
    58     28     55 1 
@<TRIPOS>SUBSTRUCTURE
     1 MOL1         1 MOLECULE          1 A
