# Molecule written by the XED library from Cresset
@<TRIPOS>MOLECULE
CHEMBL589536
    45     48      1
SMALL
USER_CHARGES
@<TRIPOS>ATOM
      1 O           -0.1023   -2.0585    0.4049 O.2       1 MOL1       -0.4490
      2 C            0.0345   -0.8673    0.1209 C.2       1 MOL1        0.4237
      3 N           -1.0365   -0.1211   -0.2356 N.am      1 MOL1       -0.3916
      4 C           -2.3858   -0.6978   -0.1694 C.3       1 MOL1        0.0823
      5 C           -3.4566    0.3739   -0.4485 C.3       1 MOL1       -0.0221
      6 N           -4.7993   -0.0539   -0.0224 N.3       1 MOL1       -0.2553
      7 C           -5.2954   -1.1655   -0.8399 C.3       1 MOL1       -0.0469
      8 C           -6.7943   -1.1430   -0.4963 C.3       1 MOL1       -0.0748
      9 C           -7.0970    0.3046   -0.0565 C.3       1 MOL1       -0.0748
     10 C           -5.7541    1.0491   -0.1407 C.3       1 MOL1       -0.0469
     11 N            1.2712   -0.2887    0.1203 N.am      1 MOL1       -0.0610
     12 C            2.4339   -1.0974    0.0739 C.ar      1 MOL1        0.0828
     13 C            2.5441   -2.2419    0.8458 C.ar      1 MOL1       -0.0976
     14 C            3.6732   -3.0266    0.7849 C.ar      1 MOL1       -0.0931
     15 C            4.7151   -2.6830   -0.0474 C.ar      1 MOL1       -0.1139
     16 C            4.6306   -1.5468   -0.8204 C.ar      1 MOL1       -0.0740
     17 C            3.5002   -0.7692   -0.7519 C.ar      1 MOL1        0.0260
     18 S            3.3999    0.7210   -1.7432 S.3       1 MOL1       -0.1317
     19 C            2.3899    1.7357   -0.6660 C.ar      1 MOL1        0.0260
     20 C            2.5766    3.0965   -0.6499 C.ar      1 MOL1       -0.0740
     21 C            1.8211    3.8704    0.2027 C.ar      1 MOL1       -0.1139
     22 C            0.8919    3.2778    1.0284 C.ar      1 MOL1       -0.0931
     23 C            0.7097    1.9140    1.0032 C.ar      1 MOL1       -0.0976
     24 C            1.4528    1.1170    0.1481 C.ar      1 MOL1        0.0828
     25  H          -0.9303    0.7054   -0.5153 H         1 MOL1        0.2045
     26  H          -2.5581   -1.1416    0.9320 H         1 MOL1        0.0600
     27  H          -2.4831   -1.5838   -0.9729 H         1 MOL1        0.0600
     28  H          -3.1561    1.3442    0.1912 H         1 MOL1        0.0581
     29  H          -3.4451    0.6684   -1.6119 H         1 MOL1        0.0581
     30  H          -5.1622   -0.9355   -2.0107 H         1 MOL1        0.0568
     31  H          -4.7828   -2.2104   -0.5482 H         1 MOL1        0.0568
     32  H          -7.4567   -1.4616   -1.4453 H         1 MOL1        0.0471
     33  H          -6.9985   -1.8999    0.4130 H         1 MOL1        0.0471
     34  H          -7.4842    0.3196    1.0799 H         1 MOL1        0.0471
     35  H          -7.9150    0.8176   -0.7698 H         1 MOL1        0.0471
     36  H          -5.6227    1.8586    0.7353 H         1 MOL1        0.0568
     37  H          -5.6579    1.5686   -1.2190 H         1 MOL1        0.0568
     38  H           1.7931   -2.5035    1.4520 H         1 MOL1        0.0919
     39  H           3.7369   -3.8514    1.3468 H         1 MOL1        0.0906
     40  H           5.5327   -3.2573   -0.0892 H         1 MOL1        0.0906
     41  H           5.3850   -1.2893   -1.4241 H         1 MOL1        0.0925
     42  H           3.2575    3.5202   -1.2473 H         1 MOL1        0.0925
     43  H           1.9494    4.8619    0.2245 H         1 MOL1        0.0906
     44  H           0.3466    3.8413    1.6490 H         1 MOL1        0.0906
     45  H           0.0311    1.4944    1.6061 H         1 MOL1        0.0919
@<TRIPOS>BOND
     1      1      2 2 
     2      2      3 am
     3      2     11 am
     4      3      4 1 
     5      4      5 1 
     6      5      6 1 
     7      6      7 1 
     8      7      8 1 
     9      8      9 1 
    10      9     10 1 
    11     10      6 1 
    12     11     12 1 
    13     12     13 ar
    14     13     14 ar
    15     14     15 ar
    16     15     16 ar
    17     16     17 ar
    18     17     12 ar
    19     17     18 1 
    20     18     19 1 
    21     19     20 ar
    22     20     21 ar
    23     21     22 ar
    24     22     23 ar
    25     23     24 ar
    26     24     11 1 
    27     24     19 ar
    28      3     25 1 
    29      4     26 1 
    30      4     27 1 
    31      5     28 1 
    32      5     29 1 
    33      7     30 1 
    34      7     31 1 
    35      8     32 1 
    36      8     33 1 
    37      9     34 1 
    38      9     35 1 
    39     10     36 1 
    40     10     37 1 
    41     13     38 1 
    42     14     39 1 
    43     15     40 1 
    44     16     41 1 
    45     20     42 1 
    46     21     43 1 
    47     22     44 1 
    48     23     45 1 
@<TRIPOS>SUBSTRUCTURE
     1 MOL1         1 MOLECULE          1 A
