# Molecule written by the XED library from Cresset
@<TRIPOS>MOLECULE
CHEMBL3819220
    51     54      1
SMALL
USER_CHARGES
@<TRIPOS>ATOM
      1 C           -8.8759    0.8500    0.2834 C.3       1 MOL1       -0.0471
      2 O           -7.8584   -0.1702    0.3408 O.3       1 MOL1       -0.2039
      3 C           -6.5720    0.1923    0.2304 C.ar      1 MOL1        0.0640
      4 C           -6.1792    1.5212    0.0944 C.ar      1 MOL1       -0.0692
      5 C           -4.8497    1.8687   -0.0273 C.ar      1 MOL1       -0.0805
      6 C           -3.8977    0.8813   -0.0186 C.ar      1 MOL1       -0.0447
      7 C           -2.3860    1.0065   -0.1538 C.3       1 MOL1       -0.0045
      8 C           -1.8844   -0.4300   -0.1644 C.2       1 MOL1       -0.0313
      9 C           -0.7311   -1.0459   -0.4300 C.2       1 MOL1       -0.0507
     10 C            0.6415   -0.5032   -0.7704 C.3       1 MOL1       -0.0232
     11 C            1.7284   -1.2679    0.0085 C.3       1 MOL1       -0.0701
     12 C            3.1155   -0.8426   -0.5184 C.3       1 MOL1       -0.0455
     13 N            3.3574    0.6077   -0.3635 N.3       1 MOL1       -0.2520
     14 C            4.6575    0.9807   -0.9597 C.3       1 MOL1       -0.0032
     15 C            5.9076    0.4355   -0.2824 C.ar      1 MOL1       -0.0509
     16 C            6.4537   -0.7625   -0.6888 C.ar      1 MOL1       -0.0846
     17 C            7.5929   -1.2465   -0.0878 C.ar      1 MOL1       -0.0900
     18 C            8.1946   -0.5303    0.9214 C.ar      1 MOL1       -0.0906
     19 C            7.6550    0.6681    1.3293 C.ar      1 MOL1       -0.0900
     20 C            6.5136    1.1484    0.7291 C.ar      1 MOL1       -0.0846
     21 C            2.2804    1.3791   -1.0160 C.3       1 MOL1       -0.0455
     22 C            0.8698    1.0000   -0.5193 C.3       1 MOL1       -0.0701
     23 C           -3.0638   -1.2390    0.0750 C.2       1 MOL1        0.2049
     24 O           -3.1003   -2.4521    0.2129 O.2       1 MOL1       -0.3843
     25 C           -4.2793   -0.4326    0.1189 C.ar      1 MOL1        0.0073
     26 C           -5.6076   -0.7967    0.2461 C.ar      1 MOL1       -0.0566
     27  H          -9.9562    0.3360    0.3763 H         1 MOL1        0.0618
     28  H          -8.8078    1.4414   -0.7592 H         1 MOL1        0.0618
     29  H          -8.7244    1.6206    1.1902 H         1 MOL1        0.0618
     30  H          -6.8726    2.2402    0.0821 H         1 MOL1        0.0924
     31  H          -4.5841    2.8277   -0.1252 H         1 MOL1        0.0908
     32  H          -2.1290    1.5742   -1.1782 H         1 MOL1        0.0524
     33  H          -1.9471    1.6000    0.7921 H         1 MOL1        0.0524
     34  H          -0.7803   -2.0339   -0.3953 H         1 MOL1        0.0887
     35  H           0.8223   -0.7371   -1.9332 H         1 MOL1        0.0514
     36  H           1.6376   -1.0133    1.1778 H         1 MOL1        0.0476
     37  H           1.5924   -2.4486   -0.1568 H         1 MOL1        0.0476
     38  H           3.1927   -1.1462   -1.6765 H         1 MOL1        0.0568
     39  H           3.9472   -1.4508    0.0957 H         1 MOL1        0.0568
     40  H           4.6727    0.6500   -2.1137 H         1 MOL1        0.0598
     41  H           4.7597    2.1772   -0.9373 H         1 MOL1        0.0598
     42  H           6.0196   -1.2826   -1.4244 H         1 MOL1        0.0908
     43  H           7.9842   -2.1172   -0.3856 H         1 MOL1        0.0906
     44  H           9.0236   -0.8802    1.3576 H         1 MOL1        0.0906
     45  H           8.0929    1.1908    2.0606 H         1 MOL1        0.0906
     46  H           6.1246    2.0209    1.0246 H         1 MOL1        0.0908
     47  H           2.3137    1.1836   -2.1993 H         1 MOL1        0.0568
     48  H           2.4424    2.5504   -0.8126 H         1 MOL1        0.0568
     49  H           0.0808    1.6572   -1.1352 H         1 MOL1        0.0476
     50  H           0.7737    1.2358    0.6534 H         1 MOL1        0.0476
     51  H          -5.8631   -1.7594    0.3403 H         1 MOL1        0.0928
@<TRIPOS>BOND
     1      1      2 1 
     2      2      3 1 
     3      3      4 ar
     4      4      5 ar
     5      5      6 ar
     6      6      7 1 
     7      7      8 1 
     8      8      9 2 
     9      8     23 1 
    10      9     10 1 
    11     10     11 1 
    12     11     12 1 
    13     12     13 1 
    14     13     14 1 
    15     13     21 1 
    16     14     15 1 
    17     15     16 ar
    18     16     17 ar
    19     17     18 ar
    20     18     19 ar
    21     19     20 ar
    22     20     15 ar
    23     21     22 1 
    24     22     10 1 
    25     23     24 2 
    26     23     25 1 
    27     25      6 ar
    28     25     26 ar
    29     26      3 ar
    30      1     27 1 
    31      1     28 1 
    32      1     29 1 
    33      4     30 1 
    34      5     31 1 
    35      7     32 1 
    36      7     33 1 
    37      9     34 1 
    38     10     35 1 
    39     11     36 1 
    40     11     37 1 
    41     12     38 1 
    42     12     39 1 
    43     14     40 1 
    44     14     41 1 
    45     16     42 1 
    46     17     43 1 
    47     18     44 1 
    48     19     45 1 
    49     20     46 1 
    50     21     47 1 
    51     21     48 1 
    52     22     49 1 
    53     22     50 1 
    54     26     51 1 
@<TRIPOS>SUBSTRUCTURE
     1 MOL1         1 MOLECULE          1 A
