# Molecule written by the XED library from Cresset
@<TRIPOS>MOLECULE
CHEMBL50
    32     34      1
SMALL
USER_CHARGES
@<TRIPOS>ATOM
      1 O           -0.6007    2.8244    0.2922 O.3       1 MOL1       -0.3737
      2 C            0.1284    1.6521    0.1222 C.2       1 MOL1        0.0782
      3 C           -0.4470    0.4103   -0.0018 C.2       1 MOL1        0.1083
      4 O            0.2745   -0.7620   -0.0865 O.3       1 MOL1       -0.1158
      5 C            1.6292   -0.6901   -0.0723 C.ar      1 MOL1        0.0980
      6 C            2.3473   -1.8701   -0.1400 C.ar      1 MOL1       -0.0879
      7 C            3.7245   -1.8623   -0.1327 C.ar      1 MOL1        0.0662
      8 O            4.4111   -3.0306   -0.1940 O.3       1 MOL1       -0.3820
      9 C            4.4127   -0.6591   -0.0616 C.ar      1 MOL1       -0.0871
     10 C            3.7230    0.5226    0.0069 C.ar      1 MOL1        0.0835
     11 O            4.3943    1.6995    0.0776 O.3       1 MOL1       -0.3800
     12 C            2.3215    0.5168    0.0066 C.ar      1 MOL1        0.0132
     13 C            1.5479    1.7357    0.0961 C.2       1 MOL1        0.1908
     14 O            2.0863    2.8414    0.1626 O.2       1 MOL1       -0.4349
     15 C           -1.9182    0.2308   -0.0580 C.ar      1 MOL1       -0.0139
     16 C           -2.7995    1.2371   -0.4308 C.ar      1 MOL1       -0.0859
     17 C           -4.1548    1.0120   -0.4712 C.ar      1 MOL1       -0.0794
     18 C           -4.6602   -0.2303   -0.1509 C.ar      1 MOL1        0.0611
     19 O           -6.0017   -0.4561   -0.1884 O.3       1 MOL1       -0.3792
     20 C           -3.7938   -1.2524    0.2065 C.ar      1 MOL1        0.0581
     21 O           -4.2824   -2.4876    0.5103 O.3       1 MOL1       -0.3817
     22 C           -2.4408   -1.0192    0.2511 C.ar      1 MOL1       -0.0680
     23  H          -1.4458    2.6619    0.8119 H         1 MOL1        0.3295
     24  H           1.8598   -2.7416   -0.1940 H         1 MOL1        0.0942
     25  H           3.7912   -3.8221   -0.2345 H         1 MOL1        0.3295
     26  H           5.4127   -0.6548   -0.0590 H         1 MOL1        0.0942
     27  H           5.3906    1.5582    0.0679 H         1 MOL1        0.3295
     28  H          -2.4482    2.1388   -0.6785 H         1 MOL1        0.0910
     29  H          -4.7755    1.7501   -0.7359 H         1 MOL1        0.0924
     30  H          -6.5076    0.3712   -0.4565 H         1 MOL1        0.3295
     31  H          -5.2845   -2.5161    0.4273 H         1 MOL1        0.3295
     32  H          -1.8220   -1.7613    0.5090 H         1 MOL1        0.0928
@<TRIPOS>BOND
     1      1      2 1 
     2      2      3 2 
     3      3      4 1 
     4      3     15 1 
     5      4      5 1 
     6      5      6 ar
     7      6      7 ar
     8      7      8 1 
     9      7      9 ar
    10      9     10 ar
    11     10     11 1 
    12     10     12 ar
    13     12      5 ar
    14     12     13 1 
    15     13      2 1 
    16     13     14 2 
    17     15     16 ar
    18     16     17 ar
    19     17     18 ar
    20     18     19 1 
    21     18     20 ar
    22     20     21 1 
    23     20     22 ar
    24     22     15 ar
    25      1     23 1 
    26      6     24 1 
    27      8     25 1 
    28      9     26 1 
    29     11     27 1 
    30     16     28 1 
    31     17     29 1 
    32     19     30 1 
    33     21     31 1 
    34     22     32 1 
@<TRIPOS>SUBSTRUCTURE
     1 MOL1         1 MOLECULE          1 A
