# Molecule written by the XED library from Cresset
@<TRIPOS>MOLECULE
CHEMBL426441
    56     60      1
SMALL
USER_CHARGES
@<TRIPOS>ATOM
      1 C            4.6119    3.3811    0.0921 C.3       1 MOL1        0.0507
      2 N            5.4243    2.1596   -0.0066 N.am      1 MOL1       -0.2338
      3 C            6.7613    2.1752   -0.0816 C.2       1 MOL1        0.3037
      4 O            7.4669    3.1725   -0.0716 O.2       1 MOL1       -0.4157
      5 C            7.2504    0.7322   -0.1806 C.3       1 MOL1        0.0274
      6 C            5.9574   -0.0765   -0.1395 C.ar      1 MOL1       -0.0389
      7 C            5.6997   -1.4215   -0.1854 C.ar      1 MOL1       -0.0711
      8 C            4.3626   -1.7820   -0.1166 C.ar      1 MOL1        0.0839
      9 O            3.8773   -3.0332   -0.1420 O.3       1 MOL1       -0.0858
     10 N            2.4672   -2.9266   -0.0305 N.ar      1 MOL1       -0.2643
     11 C            2.1835   -1.6629    0.0460 C.ar      1 MOL1        0.1083
     12 C            0.7711   -1.1365    0.2018 C.3       1 MOL1       -0.0333
     13 C           -0.3512   -2.0864   -0.2627 C.3       1 MOL1       -0.0806
     14 C           -1.7094   -1.6851    0.3492 C.3       1 MOL1       -0.0563
     15 C           -2.1700   -0.2917   -0.1233 C.3       1 MOL1       -0.0743
     16 C           -3.5263    0.0389    0.5265 C.3       1 MOL1       -0.0462
     17 N           -4.5602   -0.9541    0.1714 N.3       1 MOL1       -0.2521
     18 C           -5.8453   -0.6119    0.8134 C.3       1 MOL1       -0.0032
     19 C           -6.5168    0.6588    0.3072 C.ar      1 MOL1       -0.0509
     20 C           -6.3554    1.8466    0.9869 C.ar      1 MOL1       -0.0846
     21 C           -6.9659    2.9955    0.5378 C.ar      1 MOL1       -0.0900
     22 C           -7.7465    2.9620   -0.5946 C.ar      1 MOL1       -0.0906
     23 C           -7.9125    1.7784   -1.2768 C.ar      1 MOL1       -0.0900
     24 C           -7.2985    0.6312   -0.8270 C.ar      1 MOL1       -0.0846
     25 C           -4.1344   -2.2999    0.6008 C.3       1 MOL1       -0.0462
     26 C           -2.7906   -2.7117   -0.0381 C.3       1 MOL1       -0.0743
     27 C            3.3550   -0.8527   -0.0059 C.ar      1 MOL1       -0.0007
     28 C            3.6187    0.5123    0.0378 C.ar      1 MOL1       -0.0740
     29 C            4.9475    0.8608   -0.0333 C.ar      1 MOL1        0.0677
     30  H           3.7819    3.3843   -0.7750 H         1 MOL1        0.0570
     31  H           4.0723    3.4186    1.1636 H         1 MOL1        0.0570
     32  H           5.3206    4.3417   -0.0314 H         1 MOL1        0.0570
     33  H           7.9486    0.4601    0.7567 H         1 MOL1        0.0558
     34  H           7.8332    0.5504   -1.2138 H         1 MOL1        0.0558
     35  H           6.4302   -2.1005   -0.2619 H         1 MOL1        0.0926
     36  H           0.7064   -0.1189   -0.4300 H         1 MOL1        0.0503
     37  H           0.6130   -0.8804    1.3628 H         1 MOL1        0.0503
     38  H          -0.0908   -3.2001    0.1016 H         1 MOL1        0.0465
     39  H          -0.4237   -2.0726   -1.4605 H         1 MOL1        0.0465
     40  H          -1.6227   -1.6814    1.5461 H         1 MOL1        0.0488
     41  H          -1.3858    0.5474    0.2209 H         1 MOL1        0.0474
     42  H          -2.2797   -0.2842   -1.3182 H         1 MOL1        0.0474
     43  H          -3.3746    0.0631    1.7167 H         1 MOL1        0.0568
     44  H          -3.8526    1.1285    0.1460 H         1 MOL1        0.0568
     45  H          -5.6841   -0.5347    2.0006 H         1 MOL1        0.0598
     46  H          -6.6249   -1.5047    0.6197 H         1 MOL1        0.0598
     47  H          -5.7905    1.8740    1.8116 H         1 MOL1        0.0908
     48  H          -6.8429    3.8542    1.0352 H         1 MOL1        0.0906
     49  H          -8.1927    3.7955   -0.9212 H         1 MOL1        0.0906
     50  H          -8.4799    1.7513   -2.0998 H         1 MOL1        0.0906
     51  H          -7.4225   -0.2272   -1.3248 H         1 MOL1        0.0908
     52  H          -4.9601   -3.1130    0.2901 H         1 MOL1        0.0568
     53  H          -4.0123   -2.3031    1.7947 H         1 MOL1        0.0568
     54  H          -2.9110   -2.7423   -1.2316 H         1 MOL1        0.0474
     55  H          -2.4764   -3.7994    0.3596 H         1 MOL1        0.0474
     56  H           2.8912    1.1939    0.1173 H         1 MOL1        0.0923
@<TRIPOS>BOND
     1      1      2 1 
     2      2      3 am
     3      3      4 2 
     4      3      5 1 
     5      5      6 1 
     6      6      7 ar
     7      7      8 ar
     8      8      9 ar
     9      9     10 ar
    10     10     11 ar
    11     11     12 1 
    12     11     27 ar
    13     12     13 1 
    14     13     14 1 
    15     14     15 1 
    16     15     16 1 
    17     16     17 1 
    18     17     18 1 
    19     17     25 1 
    20     18     19 1 
    21     19     20 ar
    22     20     21 ar
    23     21     22 ar
    24     22     23 ar
    25     23     24 ar
    26     24     19 ar
    27     25     26 1 
    28     26     14 1 
    29     27      8 ar
    30     27     28 ar
    31     28     29 ar
    32     29      2 1 
    33     29      6 ar
    34      1     30 1 
    35      1     31 1 
    36      1     32 1 
    37      5     33 1 
    38      5     34 1 
    39      7     35 1 
    40     12     36 1 
    41     12     37 1 
    42     13     38 1 
    43     13     39 1 
    44     14     40 1 
    45     15     41 1 
    46     15     42 1 
    47     16     43 1 
    48     16     44 1 
    49     18     45 1 
    50     18     46 1 
    51     20     47 1 
    52     21     48 1 
    53     22     49 1 
    54     23     50 1 
    55     24     51 1 
    56     25     52 1 
    57     25     53 1 
    58     26     54 1 
    59     26     55 1 
    60     28     56 1 
@<TRIPOS>SUBSTRUCTURE
     1 MOL1         1 MOLECULE          1 A
