# Molecule written by the XED library from Cresset
@<TRIPOS>MOLECULE
CHEMBL3818801
    50     54      1
SMALL
USER_CHARGES
@<TRIPOS>ATOM
      1 O           -3.0244    2.7793   -0.5677 O.2       1 MOL1       -0.3896
      2 C           -2.7850    1.5912   -0.4062 C.2       1 MOL1        0.1999
      3 C           -1.4720    0.9778   -0.3345 C.2       1 MOL1       -0.0313
      4 C           -0.3879    1.7454   -0.4577 C.2       1 MOL1       -0.0523
      5 C            1.0830    1.4005   -0.3349 C.3       1 MOL1       -0.0233
      6 C            1.3480    0.0688    0.3963 C.3       1 MOL1       -0.0701
      7 C            2.8594   -0.1953    0.5994 C.3       1 MOL1       -0.0455
      8 N            3.7203    0.9912    0.3995 N.3       1 MOL1       -0.2520
      9 C            5.0746    0.7523    0.9397 C.3       1 MOL1       -0.0032
     10 C            5.8411   -0.4157    0.3316 C.ar      1 MOL1       -0.0509
     11 C            5.7768   -1.6575    0.9257 C.ar      1 MOL1       -0.0846
     12 C            6.4619   -2.7230    0.3888 C.ar      1 MOL1       -0.0900
     13 C            7.2189   -2.5501   -0.7469 C.ar      1 MOL1       -0.0906
     14 C            7.2899   -1.3116   -1.3426 C.ar      1 MOL1       -0.0900
     15 C            6.6019   -0.2474   -0.8046 C.ar      1 MOL1       -0.0846
     16 C            3.1229    2.1669    1.0571 C.3       1 MOL1       -0.0455
     17 C            1.7616    2.5597    0.4316 C.3       1 MOL1       -0.0701
     18 C           -1.7357   -0.5040   -0.1212 C.3       1 MOL1       -0.0043
     19 C           -3.2521   -0.6227   -0.0867 C.ar      1 MOL1       -0.0408
     20 C           -4.0022   -1.7639    0.0765 C.ar      1 MOL1       -0.0740
     21 C           -5.3716   -1.5933    0.0713 C.ar      1 MOL1        0.0859
     22 O           -6.2965   -2.5234    0.2069 O.3       1 MOL1       -0.1737
     23 C           -7.6158   -1.9050    0.1481 C.3       1 MOL1        0.0593
     24 O           -7.2796   -0.4992   -0.0428 O.3       1 MOL1       -0.1768
     25 C           -5.9604   -0.3698   -0.0826 C.ar      1 MOL1        0.0749
     26 C           -5.2358    0.7823   -0.2500 C.ar      1 MOL1       -0.0541
     27 C           -3.8527    0.6159   -0.2501 C.ar      1 MOL1       -0.0047
     28  H          -0.5768    2.7033   -0.6224 H         1 MOL1        0.0887
     29  H           1.5720    1.3553   -1.4305 H         1 MOL1        0.0514
     30  H           0.8199    0.1474    1.4713 H         1 MOL1        0.0476
     31  H           0.8720   -0.8446   -0.2173 H         1 MOL1        0.0476
     32  H           3.2193   -1.0373   -0.1772 H         1 MOL1        0.0568
     33  H           3.0047   -0.6332    1.7083 H         1 MOL1        0.0568
     34  H           5.0009    0.5975    2.1277 H         1 MOL1        0.0598
     35  H           5.7299    1.7412    0.7549 H         1 MOL1        0.0598
     36  H           5.2273   -1.7857    1.7514 H         1 MOL1        0.0908
     37  H           6.4093   -3.6221    0.8231 H         1 MOL1        0.0906
     38  H           7.7177   -3.3234   -1.1381 H         1 MOL1        0.0906
     39  H           7.8411   -1.1845   -2.1670 H         1 MOL1        0.0906
     40  H           6.6552    0.6512   -1.2400 H         1 MOL1        0.0908
     41  H           3.8573    3.1145    0.9813 H         1 MOL1        0.0568
     42  H           2.9675    1.9076    2.2195 H         1 MOL1        0.0568
     43  H           1.9134    3.4738   -0.3325 H         1 MOL1        0.0476
     44  H           1.0228    2.9292    1.3025 H         1 MOL1        0.0476
     45  H          -1.3150   -1.1409   -1.0470 H         1 MOL1        0.0524
     46  H          -1.2695   -0.8896    0.9143 H         1 MOL1        0.0524
     47  H          -3.5802   -2.6631    0.1921 H         1 MOL1        0.0926
     48  H          -8.2091   -2.0686    1.1784 H         1 MOL1        0.0806
     49  H          -8.2440   -2.3259   -0.7836 H         1 MOL1        0.0806
     50  H          -5.6685    1.6766   -0.3642 H         1 MOL1        0.0928
@<TRIPOS>BOND
     1      1      2 2 
     2      2      3 1 
     3      3      4 2 
     4      3     18 1 
     5      4      5 1 
     6      5      6 1 
     7      6      7 1 
     8      7      8 1 
     9      8      9 1 
    10      8     16 1 
    11      9     10 1 
    12     10     11 ar
    13     11     12 ar
    14     12     13 ar
    15     13     14 ar
    16     14     15 ar
    17     15     10 ar
    18     16     17 1 
    19     17      5 1 
    20     18     19 1 
    21     19     20 ar
    22     20     21 ar
    23     21     22 1 
    24     22     23 1 
    25     23     24 1 
    26     24     25 1 
    27     25     21 ar
    28     25     26 ar
    29     26     27 ar
    30     27      2 1 
    31     27     19 ar
    32      4     28 1 
    33      5     29 1 
    34      6     30 1 
    35      6     31 1 
    36      7     32 1 
    37      7     33 1 
    38      9     34 1 
    39      9     35 1 
    40     11     36 1 
    41     12     37 1 
    42     13     38 1 
    43     14     39 1 
    44     15     40 1 
    45     16     41 1 
    46     16     42 1 
    47     17     43 1 
    48     17     44 1 
    49     18     45 1 
    50     18     46 1 
    51     20     47 1 
    52     23     48 1 
    53     23     49 1 
    54     26     50 1 
@<TRIPOS>SUBSTRUCTURE
     1 MOL1         1 MOLECULE          1 A
