# Molecule written by the XED library from Cresset
@<TRIPOS>MOLECULE
CHEMBL3818167
    51     54      1
SMALL
USER_CHARGES
@<TRIPOS>ATOM
      1 C           -7.6202   -1.7966   -0.1002 C.3       1 MOL1       -0.0471
      2 O           -6.2045   -1.5216   -0.1231 O.3       1 MOL1       -0.1986
      3 C           -5.7976   -0.2540   -0.1028 C.ar      1 MOL1        0.0946
      4 C           -6.6691    0.8284   -0.1030 C.ar      1 MOL1       -0.0827
      5 C           -6.1978    2.1214   -0.0791 C.ar      1 MOL1       -0.0710
      6 C           -4.8381    2.3807   -0.0458 C.ar      1 MOL1       -0.1004
      7 C           -3.9651    1.3284   -0.0416 C.ar      1 MOL1       -0.0278
      8 C           -2.4462    1.3579    0.0256 C.3       1 MOL1       -0.0040
      9 C           -2.0264   -0.1014   -0.0783 C.2       1 MOL1       -0.0313
     10 C           -0.8855   -0.7757   -0.2386 C.2       1 MOL1       -0.0523
     11 C            0.5640   -0.3358   -0.3033 C.3       1 MOL1       -0.0233
     12 C            1.3518   -1.1492    0.7399 C.3       1 MOL1       -0.0701
     13 C            2.8687   -0.8546    0.6571 C.3       1 MOL1       -0.0455
     14 N            3.2217    0.5146    0.2101 N.3       1 MOL1       -0.2520
     15 C            4.5189    0.9349    0.7860 C.3       1 MOL1       -0.0032
     16 C            5.7778    0.2587    0.2486 C.ar      1 MOL1       -0.0509
     17 C            6.0203   -1.0819    0.4606 C.ar      1 MOL1       -0.0846
     18 C            7.1716   -1.6691   -0.0132 C.ar      1 MOL1       -0.0900
     19 C            8.0957   -0.9165   -0.6999 C.ar      1 MOL1       -0.0906
     20 C            7.8635    0.4222   -0.9133 C.ar      1 MOL1       -0.0900
     21 C            6.7092    1.0047   -0.4419 C.ar      1 MOL1       -0.0846
     22 C            2.1686    1.4688    0.6016 C.3       1 MOL1       -0.0455
     23 C            0.8125    1.1760   -0.0855 C.3       1 MOL1       -0.0701
     24 C           -3.2762   -0.8412   -0.0896 C.2       1 MOL1        0.2039
     25 O           -3.4007   -2.0572   -0.1159 O.2       1 MOL1       -0.3904
     26 C           -4.4375    0.0337   -0.0782 C.ar      1 MOL1        0.0127
     27  H          -7.7930   -2.9840   -0.1146 H         1 MOL1        0.0618
     28  H          -8.1425   -1.3099   -1.0650 H         1 MOL1        0.0618
     29  H          -8.1127   -1.3408    0.8953 H         1 MOL1        0.0618
     30  H          -7.6559    0.6693   -0.1211 H         1 MOL1        0.0924
     31  H          -6.8456    2.8831   -0.0822 H         1 MOL1        0.0906
     32  H          -4.5000    3.3215   -0.0202 H         1 MOL1        0.0908
     33  H          -2.1718    1.8004    1.1070 H         1 MOL1        0.0524
     34  H          -1.9681    2.0249   -0.8500 H         1 MOL1        0.0524
     35  H          -1.0079   -1.7536   -0.3239 H         1 MOL1        0.0887
     36  H           0.9993   -0.6469   -1.3782 H         1 MOL1        0.0514
     37  H           1.1644   -2.3240    0.5796 H         1 MOL1        0.0476
     38  H           0.9418   -0.8354    1.8238 H         1 MOL1        0.0476
     39  H           3.3714   -1.6178   -0.1210 H         1 MOL1        0.0568
     40  H           3.3183   -1.0976    1.7438 H         1 MOL1        0.0568
     41  H           4.6562    2.1108    0.5857 H         1 MOL1        0.0598
     42  H           4.4937    0.8049    1.9787 H         1 MOL1        0.0598
     43  H           5.3545   -1.6329    0.9633 H         1 MOL1        0.0908
     44  H           7.3375   -2.6427    0.1436 H         1 MOL1        0.0906
     45  H           8.9341   -1.3409   -1.0422 H         1 MOL1        0.0906
     46  H           8.5342    0.9730   -1.4102 H         1 MOL1        0.0906
     47  H           6.5497    1.9791   -0.5992 H         1 MOL1        0.0908
     48  H           2.0360    1.3994    1.7931 H         1 MOL1        0.0568
     49  H           2.4796    2.5934    0.3192 H         1 MOL1        0.0568
     50  H           0.7561    1.7354   -1.1470 H         1 MOL1        0.0476
     51  H          -0.0287    1.6330    0.6316 H         1 MOL1        0.0476
@<TRIPOS>BOND
     1      1      2 1 
     2      2      3 1 
     3      3      4 ar
     4      4      5 ar
     5      5      6 ar
     6      6      7 ar
     7      7      8 1 
     8      8      9 1 
     9      9     10 2 
    10      9     24 1 
    11     10     11 1 
    12     11     12 1 
    13     12     13 1 
    14     13     14 1 
    15     14     15 1 
    16     14     22 1 
    17     15     16 1 
    18     16     17 ar
    19     17     18 ar
    20     18     19 ar
    21     19     20 ar
    22     20     21 ar
    23     21     16 ar
    24     22     23 1 
    25     23     11 1 
    26     24     25 2 
    27     24     26 1 
    28     26      3 ar
    29     26      7 ar
    30      1     27 1 
    31      1     28 1 
    32      1     29 1 
    33      4     30 1 
    34      5     31 1 
    35      6     32 1 
    36      8     33 1 
    37      8     34 1 
    38     10     35 1 
    39     11     36 1 
    40     12     37 1 
    41     12     38 1 
    42     13     39 1 
    43     13     40 1 
    44     15     41 1 
    45     15     42 1 
    46     17     43 1 
    47     18     44 1 
    48     19     45 1 
    49     20     46 1 
    50     21     47 1 
    51     22     48 1 
    52     22     49 1 
    53     23     50 1 
    54     23     51 1 
@<TRIPOS>SUBSTRUCTURE
     1 MOL1         1 MOLECULE          1 A
