# Molecule written by the XED library from Cresset
@<TRIPOS>MOLECULE
CHEMBL92958
    49     52      1
SMALL
USER_CHARGES
@<TRIPOS>ATOM
      1 C            1.2420   -1.2970   -0.3295 C.3       1 MOL1       -0.0807
      2 C            2.1573   -0.1472    0.1406 C.3       1 MOL1       -0.0354
      3 C            3.6453   -0.4134    0.0233 C.ar      1 MOL1        0.0118
      4 N            4.1673   -1.6097   -0.0333 N.2       1 MOL1       -0.2622
      5 N            5.5321   -1.5623   -0.1126 N.pl3     1 MOL1       -0.0845
      6 C            5.8012   -0.2246   -0.0979 C.ar      1 MOL1        0.0777
      7 C            7.0733    0.3355   -0.1530 C.ar      1 MOL1       -0.0925
      8 C            7.1601    1.6979   -0.1255 C.ar      1 MOL1       -0.0878
      9 C            6.0130    2.4990   -0.0446 C.ar      1 MOL1       -0.1118
     10 C            4.7675    1.9475    0.0096 C.ar      1 MOL1       -0.0760
     11 C            4.6754    0.5544   -0.0168 C.ar      1 MOL1       -0.0212
     12 C           -0.1777   -1.1685    0.2608 C.3       1 MOL1       -0.0563
     13 C           -0.9214    0.0802   -0.2514 C.3       1 MOL1       -0.0743
     14 C           -2.3070    0.1388    0.4197 C.3       1 MOL1       -0.0462
     15 N           -3.1223   -1.0550    0.1149 N.3       1 MOL1       -0.2521
     16 C           -4.4289   -0.9794    0.7996 C.3       1 MOL1       -0.0032
     17 C           -5.3658    0.1218    0.3197 C.ar      1 MOL1       -0.0509
     18 C           -5.3759    1.3468    0.9508 C.ar      1 MOL1       -0.0846
     19 C           -6.2242    2.3433    0.5252 C.ar      1 MOL1       -0.0900
     20 C           -7.0720    2.1170   -0.5341 C.ar      1 MOL1       -0.0906
     21 C           -7.0701    0.8943   -1.1647 C.ar      1 MOL1       -0.0900
     22 C           -6.2182   -0.1000   -0.7396 C.ar      1 MOL1       -0.0846
     23 C           -2.4119   -2.2768    0.5427 C.3       1 MOL1       -0.0462
     24 C           -1.0177   -2.4050   -0.1072 C.3       1 MOL1       -0.0743
     25 H            6.1000   -2.2339   -0.1583 H         1 MOL1        0.2094
     26  H           1.6981   -2.3404    0.0503 H         1 MOL1        0.0465
     27  H           1.1913   -1.3068   -1.5280 H         1 MOL1        0.0465
     28  H           1.9289    0.0950    1.2936 H         1 MOL1        0.0503
     29  H           1.9221    0.8296   -0.5148 H         1 MOL1        0.0503
     30  H           7.8915   -0.2366   -0.2098 H         1 MOL1        0.0919
     31  H           8.0598    2.1325   -0.1634 H         1 MOL1        0.0906
     32  H           6.1100    3.4938   -0.0244 H         1 MOL1        0.0906
     33  H           3.9494    2.5194    0.0675 H         1 MOL1        0.0910
     34  H          -0.1123   -1.1159    1.4583 H         1 MOL1        0.0488
     35  H          -0.3218    1.0764    0.0421 H         1 MOL1        0.0474
     36  H          -1.0486    0.0143   -1.4427 H         1 MOL1        0.0474
     37  H          -2.1450    0.2333    1.6049 H         1 MOL1        0.0568
     38  H          -2.8597    1.1210    0.0112 H         1 MOL1        0.0568
     39  H          -5.0105   -2.0181    0.6372 H         1 MOL1        0.0598
     40  H          -4.2457   -0.8596    1.9799 H         1 MOL1        0.0598
     41  H          -4.7608    1.5132    1.7214 H         1 MOL1        0.0908
     42  H          -6.2248    3.2308    0.9860 H         1 MOL1        0.0906
     43  H          -7.6907    2.8389   -0.8432 H         1 MOL1        0.0906
     44  H          -7.6883    0.7277   -1.9328 H         1 MOL1        0.0906
     45  H          -6.2190   -0.9876   -1.2004 H         1 MOL1        0.0908
     46  H          -2.2767   -2.2469    1.7349 H         1 MOL1        0.0568
     47  H          -3.0495   -3.2489    0.2445 H         1 MOL1        0.0568
     48  H          -0.4749   -3.3932    0.3030 H         1 MOL1        0.0474
     49  H          -1.1336   -2.4783   -1.2995 H         1 MOL1        0.0474
@<TRIPOS>BOND
     1      1      2 1 
     2      1     12 1 
     3      2      3 1 
     4      3      4 ar
     5      4      5 ar
     6      5      6 ar
     7      6      7 ar
     8      7      8 ar
     9      8      9 ar
    10      9     10 ar
    11     10     11 ar
    12     11      3 ar
    13     11      6 ar
    14     12     13 1 
    15     13     14 1 
    16     14     15 1 
    17     15     16 1 
    18     15     23 1 
    19     16     17 1 
    20     17     18 ar
    21     18     19 ar
    22     19     20 ar
    23     20     21 ar
    24     21     22 ar
    25     22     17 ar
    26     23     24 1 
    27     24     12 1 
    28      1     26 1 
    29      1     27 1 
    30      2     28 1 
    31      2     29 1 
    32      5     25 1 
    33      7     30 1 
    34      8     31 1 
    35      9     32 1 
    36     10     33 1 
    37     12     34 1 
    38     13     35 1 
    39     13     36 1 
    40     14     37 1 
    41     14     38 1 
    42     16     39 1 
    43     16     40 1 
    44     18     41 1 
    45     19     42 1 
    46     20     43 1 
    47     21     44 1 
    48     22     45 1 
    49     23     46 1 
    50     23     47 1 
    51     24     48 1 
    52     24     49 1 
@<TRIPOS>SUBSTRUCTURE
     1 MOL1         1 MOLECULE          1 A
