# Molecule written by the XED library from Cresset
@<TRIPOS>MOLECULE
CHEMBL258893
    44     48      1
SMALL
USER_CHARGES
@<TRIPOS>ATOM
      1 C            6.6371   -1.3970    0.0000 C.3       1 MOL1       -0.0471
      2 O            5.8045   -0.2187    0.0002 O.3       1 MOL1       -0.2027
      3 C            4.4634   -0.3472    0.0000 C.ar      1 MOL1        0.0547
      4 C            3.8834   -1.6177   -0.0001 C.ar      1 MOL1       -0.1067
      5 C            2.5337   -1.8030   -0.0002 C.ar      1 MOL1       -0.1057
      6 C            1.6535   -0.7253   -0.0001 C.ar      1 MOL1       -0.0279
      7 C            2.2279    0.5642    0.0001 C.ar      1 MOL1       -0.0111
      8 C            1.3643    1.6504    0.0002 C.ar      1 MOL1       -0.0178
      9 N            0.0200    1.5231    0.0002 N.pl3     1 MOL1       -0.1119
     10 C           -0.6985    2.7970    0.0007 C.3       1 MOL1        0.0232
     11 C           -0.5939    0.2584    0.0000 C.ar      1 MOL1        0.1042
     12 C            0.2290   -0.8706    0.0000 C.ar      1 MOL1       -0.0217
     13 C           -0.3270   -2.1763    0.0000 C.ar      1 MOL1       -0.0996
     14 C           -1.6498   -2.3751    0.0000 C.ar      1 MOL1       -0.1109
     15 C           -2.5242   -1.2723    0.0000 C.ar      1 MOL1       -0.0287
     16 C           -3.8921   -1.5991    0.0000 C.ar      1 MOL1       -0.0819
     17 C           -4.7654   -0.5658   -0.0001 C.ar      1 MOL1        0.0787
     18 O           -6.0869   -0.6030    0.0001 O.3       1 MOL1       -0.1750
     19 C           -6.6002    0.7626    0.0001 C.3       1 MOL1        0.0592
     20 O           -5.3724    1.5510   -0.0003 O.3       1 MOL1       -0.1762
     21 C           -4.3312    0.7334   -0.0003 C.ar      1 MOL1        0.0713
     22 C           -3.0163    1.0653   -0.0004 C.ar      1 MOL1       -0.0681
     23 C           -2.0247    0.0530   -0.0001 C.ar      1 MOL1       -0.0254
     24 C            3.6382    0.7703    0.0001 C.ar      1 MOL1        0.0512
     25 O            4.0659    2.0463    0.0002 O.3       1 MOL1       -0.1987
     26 C            5.4619    2.4113   -0.0005 C.3       1 MOL1       -0.0471
     27  H           7.7881   -1.0577    0.0000 H         1 MOL1        0.0618
     28  H           6.4266   -2.0496   -0.9849 H         1 MOL1        0.0618
     29  H           6.4266   -2.0497    0.9849 H         1 MOL1        0.0618
     30  H           4.4707   -2.4253   -0.0002 H         1 MOL1        0.0924
     31  H           2.1846   -2.7365   -0.0004 H         1 MOL1        0.0910
     32  H           1.7599    2.5680    0.0003 H         1 MOL1        0.0984
     33  H          -1.3407    2.9114   -1.0073 H         1 MOL1        0.0550
     34  H          -1.3415    2.9102    1.0082 H         1 MOL1        0.0550
     35  H           0.0461    3.7395    0.0015 H         1 MOL1        0.0550
     36  H           0.2670   -2.9760    0.0000 H         1 MOL1        0.0910
     37  H          -2.0139   -3.3070    0.0000 H         1 MOL1        0.0910
     38  H          -4.2064   -2.5489    0.0001 H         1 MOL1        0.0928
     39  H          -7.2441    0.9771   -0.9897 H         1 MOL1        0.0806
     40  H          -7.2434    0.9772    0.9903 H         1 MOL1        0.0806
     41  H          -2.7763    2.0254   -0.0006 H         1 MOL1        0.0928
     42  H           6.0076    2.0147   -0.9933 H         1 MOL1        0.0618
     43  H           6.0087    2.0149    0.9917 H         1 MOL1        0.0618
     44  H           5.5275    3.6095   -0.0006 H         1 MOL1        0.0618
@<TRIPOS>BOND
     1      1      2 1 
     2      2      3 1 
     3      3      4 ar
     4      4      5 ar
     5      5      6 ar
     6      6      7 ar
     7      7      8 ar
     8      7     24 ar
     9      8      9 ar
    10      9     10 1 
    11      9     11 ar
    12     11     12 ar
    13     12      6 ar
    14     12     13 ar
    15     13     14 ar
    16     14     15 ar
    17     15     16 ar
    18     16     17 ar
    19     17     18 1 
    20     18     19 1 
    21     19     20 1 
    22     20     21 1 
    23     21     17 ar
    24     21     22 ar
    25     22     23 ar
    26     23     11 ar
    27     23     15 ar
    28     24      3 ar
    29     24     25 1 
    30     25     26 1 
    31      1     27 1 
    32      1     28 1 
    33      1     29 1 
    34      4     30 1 
    35      5     31 1 
    36      8     32 1 
    37     10     33 1 
    38     10     34 1 
    39     10     35 1 
    40     13     36 1 
    41     14     37 1 
    42     16     38 1 
    43     19     39 1 
    44     19     40 1 
    45     22     41 1 
    46     26     42 1 
    47     26     43 1 
    48     26     44 1 
@<TRIPOS>SUBSTRUCTURE
     1 MOL1         1 MOLECULE          1 A
