# Molecule written by the XED library from Cresset
@<TRIPOS>MOLECULE
CHEMBL3818616
    48     51      1
SMALL
USER_CHARGES
@<TRIPOS>ATOM
      1 O           -6.4528   -1.7845   -0.3177 O.3       1 MOL1       -0.3794
      2 C           -6.0512   -0.4957   -0.2127 C.ar      1 MOL1        0.0857
      3 C           -6.9728    0.5367   -0.2136 C.ar      1 MOL1       -0.0832
      4 C           -6.5556    1.8446   -0.1091 C.ar      1 MOL1       -0.0711
      5 C           -5.2097    2.1546    0.0034 C.ar      1 MOL1       -0.1004
      6 C           -4.2914    1.1403    0.0060 C.ar      1 MOL1       -0.0278
      7 C           -2.7777    1.2250    0.1428 C.3       1 MOL1       -0.0040
      8 C           -2.2983   -0.2123   -0.0023 C.2       1 MOL1       -0.0313
      9 C           -1.1254   -0.8302   -0.1541 C.2       1 MOL1       -0.0523
     10 C            0.3000   -0.3168   -0.1427 C.3       1 MOL1       -0.0233
     11 C            1.1214   -1.1706    0.8402 C.3       1 MOL1       -0.0701
     12 C            2.6209   -0.7939    0.7788 C.3       1 MOL1       -0.0455
     13 N            2.8975    0.5906    0.3280 N.3       1 MOL1       -0.2520
     14 C            4.2175    1.0437    0.8167 C.3       1 MOL1       -0.0032
     15 C            5.4384    0.3472    0.2293 C.ar      1 MOL1       -0.0509
     16 C            5.7906   -0.9243    0.6281 C.ar      1 MOL1       -0.0846
     17 C            6.9061   -1.5354    0.1029 C.ar      1 MOL1       -0.0900
     18 C            7.6814   -0.8726   -0.8204 C.ar      1 MOL1       -0.0906
     19 C            7.3356    0.3976   -1.2211 C.ar      1 MOL1       -0.0900
     20 C            6.2167    1.0050   -0.6979 C.ar      1 MOL1       -0.0846
     21 C            1.8476    1.5064    0.8085 C.3       1 MOL1       -0.0455
     22 C            0.4519    1.1760    0.2239 C.3       1 MOL1       -0.0701
     23 C           -3.5142   -1.0006   -0.0937 C.2       1 MOL1        0.2037
     24 O           -3.5843   -2.2193   -0.1628 O.2       1 MOL1       -0.3904
     25 C           -4.7059   -0.1697   -0.1058 C.ar      1 MOL1        0.0120
     26  H          -7.4544   -1.8506   -0.3830 H         1 MOL1        0.3295
     27  H          -7.9483    0.3308   -0.2924 H         1 MOL1        0.0924
     28  H          -7.2330    2.5800   -0.1125 H         1 MOL1        0.0906
     29  H          -4.9134    3.1062    0.0848 H         1 MOL1        0.0908
     30  H          -2.5615    1.6356    1.2491 H         1 MOL1        0.0524
     31  H          -2.2827    1.9418   -0.6830 H         1 MOL1        0.0524
     32  H          -1.1992   -1.8071   -0.2889 H         1 MOL1        0.0887
     33  H           0.7726   -0.4900   -1.2317 H         1 MOL1        0.0514
     34  H           0.9879   -2.3390    0.5980 H         1 MOL1        0.0476
     35  H           0.6971   -0.9523    1.9420 H         1 MOL1        0.0476
     36  H           3.0790   -1.0009    1.8695 H         1 MOL1        0.0568
     37  H           3.1808   -1.5243    0.0079 H         1 MOL1        0.0568
     38  H           4.2598    0.9469    2.0123 H         1 MOL1        0.0598
     39  H           4.3382    2.2112    0.5621 H         1 MOL1        0.0598
     40  H           5.2319   -1.4058    1.3032 H         1 MOL1        0.0908
     41  H           7.1540   -2.4591    0.3950 H         1 MOL1        0.0906
     42  H           8.4952   -1.3129   -1.2001 H         1 MOL1        0.0906
     43  H           7.8988    0.8812   -1.8913 H         1 MOL1        0.0906
     44  H           5.9700    1.9298   -0.9886 H         1 MOL1        0.0908
     45  H           1.8152    1.4219    2.0057 H         1 MOL1        0.0568
     46  H           2.1105    2.6405    0.5174 H         1 MOL1        0.0568
     47  H           0.2441    1.8294   -0.7617 H         1 MOL1        0.0476
     48  H          -0.3509    1.4656    1.0629 H         1 MOL1        0.0476
@<TRIPOS>BOND
     1      1      2 1 
     2      2      3 ar
     3      3      4 ar
     4      4      5 ar
     5      5      6 ar
     6      6      7 1 
     7      7      8 1 
     8      8      9 2 
     9      8     23 1 
    10      9     10 1 
    11     10     11 1 
    12     11     12 1 
    13     12     13 1 
    14     13     14 1 
    15     13     21 1 
    16     14     15 1 
    17     15     16 ar
    18     16     17 ar
    19     17     18 ar
    20     18     19 ar
    21     19     20 ar
    22     20     15 ar
    23     21     22 1 
    24     22     10 1 
    25     23     24 2 
    26     23     25 1 
    27     25      2 ar
    28     25      6 ar
    29      1     26 1 
    30      3     27 1 
    31      4     28 1 
    32      5     29 1 
    33      7     30 1 
    34      7     31 1 
    35      9     32 1 
    36     10     33 1 
    37     11     34 1 
    38     11     35 1 
    39     12     36 1 
    40     12     37 1 
    41     14     38 1 
    42     14     39 1 
    43     16     40 1 
    44     17     41 1 
    45     18     42 1 
    46     19     43 1 
    47     20     44 1 
    48     21     45 1 
    49     21     46 1 
    50     22     47 1 
    51     22     48 1 
@<TRIPOS>SUBSTRUCTURE
     1 MOL1         1 MOLECULE          1 A
