# Molecule written by the XED library from Cresset
@<TRIPOS>MOLECULE
CHEMBL3819574
    55     58      1
SMALL
USER_CHARGES
@<TRIPOS>ATOM
      1 C           -9.5013   -0.5432   -1.3041 C.3       1 MOL1       -0.0471
      2 O           -8.2073   -1.0627   -0.9332 O.3       1 MOL1       -0.2037
      3 C           -7.3083   -0.2329   -0.3833 C.ar      1 MOL1        0.0592
      4 C           -7.5322    1.1275   -0.2413 C.ar      1 MOL1       -0.0839
      5 C           -6.5849    1.9330    0.3441 C.ar      1 MOL1       -0.0862
      6 C           -5.4052    1.3923    0.8007 C.ar      1 MOL1       -0.1014
      7 C           -5.1609    0.0431    0.6636 C.ar      1 MOL1       -0.0479
      8 C           -3.8825   -0.5836    1.2100 C.3       1 MOL1       -0.0030
      9 N           -2.6015   -0.3983    0.4916 N.3       1 MOL1       -0.2520
     10 C           -1.5692   -1.2606    1.1087 C.3       1 MOL1       -0.0455
     11 C           -0.1432   -1.0469    0.5567 C.3       1 MOL1       -0.0701
     12 C            0.2369    0.4309    0.7584 C.3       1 MOL1       -0.0233
     13 C           -0.7742    1.2677   -0.0444 C.3       1 MOL1       -0.0701
     14 C           -2.1843    1.0211    0.5350 C.3       1 MOL1       -0.0455
     15 C            1.6562    0.8343    0.4217 C.2       1 MOL1       -0.0523
     16 C            2.7415    0.1130    0.1378 C.2       1 MOL1       -0.0313
     17 C            3.0928   -1.3655    0.0673 C.3       1 MOL1       -0.0040
     18 C            4.6086   -1.3870   -0.0757 C.ar      1 MOL1       -0.0278
     19 C            5.4459   -2.4675   -0.1283 C.ar      1 MOL1       -0.1004
     20 C            6.8090   -2.2549   -0.2503 C.ar      1 MOL1       -0.0710
     21 C            7.3215   -0.9795   -0.3187 C.ar      1 MOL1       -0.0827
     22 C            6.4886    0.1314   -0.2725 C.ar      1 MOL1        0.0946
     23 O            6.9367    1.3840   -0.3324 O.3       1 MOL1       -0.1986
     24 C            8.3601    1.6089   -0.4013 C.3       1 MOL1       -0.0471
     25 C            5.1245   -0.1098   -0.1526 C.ar      1 MOL1        0.0127
     26 C            3.9998    0.8071   -0.0672 C.2       1 MOL1        0.2039
     27 O            4.1575    2.0171   -0.1484 O.2       1 MOL1       -0.3904
     28 C           -6.1113   -0.7570    0.0697 C.ar      1 MOL1       -0.0782
     29  H         -10.1804   -1.4380   -1.7267 H         1 MOL1        0.0618
     30  H          -9.3732    0.2907   -2.1571 H         1 MOL1        0.0618
     31  H         -10.0461   -0.0606   -0.3492 H         1 MOL1        0.0618
     32  H          -8.3897    1.5286   -0.5623 H         1 MOL1        0.0924
     33  H          -6.7564    2.9131    0.4446 H         1 MOL1        0.0906
     34  H          -4.7254    1.9813    1.2379 H         1 MOL1        0.0908
     35  H          -4.0936   -1.7641    1.2807 H         1 MOL1        0.0598
     36  H          -3.7609   -0.1892    2.3366 H         1 MOL1        0.0598
     37  H          -1.5232   -1.0518    2.2898 H         1 MOL1        0.0568
     38  H          -1.8595   -2.4125    0.9382 H         1 MOL1        0.0568
     39  H           0.5925   -1.7589    1.1779 H         1 MOL1        0.0476
     40  H          -0.1003   -1.3260   -0.6100 H         1 MOL1        0.0476
     41  H           0.0862    0.7165    1.9136 H         1 MOL1        0.0514
     42  H          -0.5065    2.4336    0.0517 H         1 MOL1        0.0476
     43  H          -0.7374    0.9405   -1.1986 H         1 MOL1        0.0476
     44  H          -2.9545    1.6753   -0.1107 H         1 MOL1        0.0568
     45  H          -2.1950    1.4182    1.6671 H         1 MOL1        0.0568
     46  H           1.8055    1.8124    0.4161 H         1 MOL1        0.0887
     47  H           2.7846   -1.9493    1.0686 H         1 MOL1        0.0524
     48  H           2.5913   -1.8673   -0.9010 H         1 MOL1        0.0524
     49  H           5.0806   -3.3968   -0.0768 H         1 MOL1        0.0908
     50  H           7.4293   -3.0383   -0.2882 H         1 MOL1        0.0906
     51  H           8.3097   -0.8547   -0.4033 H         1 MOL1        0.0924
     52  H           8.5743    2.7893   -0.4330 H         1 MOL1        0.0618
     53  H           8.9006    1.1383    0.5619 H         1 MOL1        0.0618
     54  H           8.8002    1.0993   -1.3952 H         1 MOL1        0.0618
     55  H          -5.9362   -1.7377   -0.0225 H         1 MOL1        0.0926
@<TRIPOS>BOND
     1      1      2 1 
     2      2      3 1 
     3      3      4 ar
     4      4      5 ar
     5      5      6 ar
     6      6      7 ar
     7      7      8 1 
     8      7     28 ar
     9      8      9 1 
    10      9     10 1 
    11     10     11 1 
    12     11     12 1 
    13     12     13 1 
    14     12     15 1 
    15     13     14 1 
    16     14      9 1 
    17     15     16 2 
    18     16     17 1 
    19     16     26 1 
    20     17     18 1 
    21     18     19 ar
    22     19     20 ar
    23     20     21 ar
    24     21     22 ar
    25     22     23 1 
    26     22     25 ar
    27     23     24 1 
    28     25     18 ar
    29     25     26 1 
    30     26     27 2 
    31     28      3 ar
    32      1     29 1 
    33      1     30 1 
    34      1     31 1 
    35      4     32 1 
    36      5     33 1 
    37      6     34 1 
    38      8     35 1 
    39      8     36 1 
    40     10     37 1 
    41     10     38 1 
    42     11     39 1 
    43     11     40 1 
    44     12     41 1 
    45     13     42 1 
    46     13     43 1 
    47     14     44 1 
    48     14     45 1 
    49     15     46 1 
    50     17     47 1 
    51     17     48 1 
    52     19     49 1 
    53     20     50 1 
    54     21     51 1 
    55     24     52 1 
    56     24     53 1 
    57     24     54 1 
    58     28     55 1 
@<TRIPOS>SUBSTRUCTURE
     1 MOL1         1 MOLECULE          1 A
