# Molecule written by the XED library from Cresset
@<TRIPOS>MOLECULE
CHEMBL359570
    53     57      1
SMALL
USER_CHARGES
@<TRIPOS>ATOM
      1 O           -7.8949   -3.2249   -0.0198 O.2       1 MOL1       -0.4137
      2 C           -7.0074   -2.3876   -0.0244 C.2       1 MOL1        0.3054
      3 C           -5.5065   -2.6608    0.0361 C.3       1 MOL1        0.0259
      4 C           -4.9071   -1.2601    0.0083 C.ar      1 MOL1       -0.0697
      5 C           -3.6217   -0.8031    0.0413 C.ar      1 MOL1       -0.0491
      6 C           -3.4746    0.5821   -0.0031 C.ar      1 MOL1       -0.0168
      7 C           -2.3700    1.4750    0.0167 C.ar      1 MOL1        0.1005
      8 C           -0.9237    1.0348    0.1216 C.3       1 MOL1       -0.0334
      9 C            0.1494    2.0557   -0.3073 C.3       1 MOL1       -0.0806
     10 C            1.5327    1.6682    0.2575 C.3       1 MOL1       -0.0563
     11 C            2.0205    0.3001   -0.2590 C.3       1 MOL1       -0.0743
     12 C            3.3721   -0.0229    0.4042 C.3       1 MOL1       -0.0462
     13 N            4.4008    0.9916    0.0956 N.3       1 MOL1       -0.2521
     14 C            5.6690    0.6654    0.7795 C.3       1 MOL1       -0.0032
     15 C            6.3705   -0.6049    0.3130 C.ar      1 MOL1       -0.0509
     16 C            6.1175   -1.8061    0.9396 C.ar      1 MOL1       -0.0846
     17 C            6.7508   -2.9547    0.5237 C.ar      1 MOL1       -0.0900
     18 C            7.6460   -2.9053   -0.5196 C.ar      1 MOL1       -0.0906
     19 C            7.9056   -1.7082   -1.1464 C.ar      1 MOL1       -0.0900
     20 C            7.2682   -0.5613   -0.7314 C.ar      1 MOL1       -0.0846
     21 C            3.9389    2.3293    0.5198 C.3       1 MOL1       -0.0462
     22 C            2.5900    2.7212   -0.1218 C.3       1 MOL1       -0.0743
     23 N           -2.7485    2.7164   -0.0423 N.ar      1 MOL1       -0.2792
     24 O           -4.1669    2.7171   -0.1088 O.3       1 MOL1       -0.0849
     25 C           -4.5547    1.4335   -0.0787 C.ar      1 MOL1        0.1003
     26 C           -5.8564    0.9702   -0.1121 C.ar      1 MOL1       -0.0890
     27 C           -5.9883   -0.4009   -0.0647 C.ar      1 MOL1        0.0981
     28 N           -7.1938   -1.0638   -0.0839 N.am      1 MOL1       -0.2047
     29  H          -5.1485   -3.2889   -0.9215 H         1 MOL1        0.0558
     30  H          -5.2112   -3.2266    1.0523 H         1 MOL1        0.0558
     31  H          -2.8370   -1.4214    0.0950 H         1 MOL1        0.0912
     32  H          -0.7359    0.7180    1.2635 H         1 MOL1        0.0503
     33  H          -0.8185    0.0606   -0.5704 H         1 MOL1        0.0503
     34  H          -0.1458    3.1333    0.1305 H         1 MOL1        0.0465
     35  H           0.1973    2.1163   -1.5048 H         1 MOL1        0.0465
     36  H           1.4705    1.6267    1.4554 H         1 MOL1        0.0488
     37  H           1.2513   -0.5666    0.0489 H         1 MOL1        0.0474
     38  H           2.1443    0.3331   -1.4523 H         1 MOL1        0.0474
     39  H           3.2018   -0.0829    1.5904 H         1 MOL1        0.0568
     40  H           3.7193   -1.0965   -0.0016 H         1 MOL1        0.0568
     41  H           5.4696    0.5941    1.9610 H         1 MOL1        0.0598
     42  H           6.4425    1.5679    0.6074 H         1 MOL1        0.0598
     43  H           5.4685   -1.8437    1.6996 H         1 MOL1        0.0908
     44  H           6.5612   -3.8242    0.9799 H         1 MOL1        0.0906
     45  H           8.1084   -3.7386   -0.8217 H         1 MOL1        0.0906
     46  H           8.5578   -1.6718   -1.9035 H         1 MOL1        0.0906
     47  H           7.4590    0.3076   -1.1881 H         1 MOL1        0.0908
     48  H           4.7506    3.1576    0.2117 H         1 MOL1        0.0568
     49  H           3.8067    2.3359    1.7123 H         1 MOL1        0.0568
     50  H           2.7080    2.7603   -1.3153 H         1 MOL1        0.0474
     51  H           2.2502    3.7978    0.2842 H         1 MOL1        0.0474
     52  H          -6.6442    1.5842   -0.1652 H         1 MOL1        0.0937
     53  H          -7.9818   -0.6729   -0.1295 H         1 MOL1        0.2055
@<TRIPOS>BOND
     1      1      2 2 
     2      2      3 1 
     3      3      4 1 
     4      4      5 ar
     5      5      6 ar
     6      6      7 ar
     7      7      8 1 
     8      7     23 ar
     9      8      9 1 
    10      9     10 1 
    11     10     11 1 
    12     11     12 1 
    13     12     13 1 
    14     13     14 1 
    15     13     21 1 
    16     14     15 1 
    17     15     16 ar
    18     16     17 ar
    19     17     18 ar
    20     18     19 ar
    21     19     20 ar
    22     20     15 ar
    23     21     22 1 
    24     22     10 1 
    25     23     24 ar
    26     24     25 ar
    27     25      6 ar
    28     25     26 ar
    29     26     27 ar
    30     27      4 ar
    31     27     28 1 
    32     28      2 am
    33      3     29 1 
    34      3     30 1 
    35      5     31 1 
    36      8     32 1 
    37      8     33 1 
    38      9     34 1 
    39      9     35 1 
    40     10     36 1 
    41     11     37 1 
    42     11     38 1 
    43     12     39 1 
    44     12     40 1 
    45     14     41 1 
    46     14     42 1 
    47     16     43 1 
    48     17     44 1 
    49     18     45 1 
    50     19     46 1 
    51     20     47 1 
    52     21     48 1 
    53     21     49 1 
    54     22     50 1 
    55     22     51 1 
    56     26     52 1 
    57     28     53 1 
@<TRIPOS>SUBSTRUCTURE
     1 MOL1         1 MOLECULE          1 A
