# Molecule written by the XED library from Cresset
@<TRIPOS>MOLECULE
CHEMBL329231
    56     60      1
SMALL
USER_CHARGES
@<TRIPOS>ATOM
      1 O            9.3529   -1.2174    0.0115 O.2       1 MOL1       -0.4142
      2 C            8.1418   -1.1125    0.1198 C.2       1 MOL1        0.2967
      3 C            7.2497   -2.3012    0.4275 C.3       1 MOL1       -0.0092
      4 C            5.9004   -2.2407   -0.3115 C.3       1 MOL1       -0.0346
      5 C            5.2607   -0.8749   -0.1592 C.ar      1 MOL1       -0.0813
      6 C            3.8994   -0.7437   -0.1842 C.ar      1 MOL1       -0.0498
      7 C            3.3716    0.5359   -0.0553 C.ar      1 MOL1       -0.0168
      8 C            2.0700    1.1075   -0.0387 C.ar      1 MOL1        0.1005
      9 C            0.7727    0.3373   -0.1997 C.3       1 MOL1       -0.0334
     10 C           -0.4804    1.0269    0.3774 C.3       1 MOL1       -0.0806
     11 C           -1.7745    0.4683   -0.2495 C.3       1 MOL1       -0.0563
     12 C           -2.9846    1.2990    0.2163 C.3       1 MOL1       -0.0743
     13 C           -4.2564    0.7590   -0.4703 C.3       1 MOL1       -0.0462
     14 N           -4.4958   -0.6648   -0.1533 N.3       1 MOL1       -0.2521
     15 C           -5.7000   -1.1540   -0.8540 C.3       1 MOL1       -0.0032
     16 C           -7.0266   -0.6231   -0.3274 C.ar      1 MOL1       -0.0509
     17 C           -7.6155    0.4822   -0.9017 C.ar      1 MOL1       -0.0846
     18 C           -8.8214    0.9505   -0.4320 C.ar      1 MOL1       -0.0900
     19 C           -9.4468    0.3122    0.6140 C.ar      1 MOL1       -0.0906
     20 C           -8.8641   -0.7927    1.1903 C.ar      1 MOL1       -0.0900
     21 C           -7.6568   -1.2576    0.7208 C.ar      1 MOL1       -0.0846
     22 C           -3.3301   -1.4763   -0.5521 C.3       1 MOL1       -0.0462
     23 C           -2.0309   -1.0038    0.1310 C.3       1 MOL1       -0.0743
     24 N            2.1161    2.3982    0.1058 N.ar      1 MOL1       -0.2792
     25 O            3.4844    2.7624    0.1968 O.3       1 MOL1       -0.0849
     26 C            4.1894    1.6268    0.0905 C.ar      1 MOL1        0.1003
     27 C            5.5631    1.5060    0.1127 C.ar      1 MOL1       -0.0891
     28 C            6.0993    0.2379   -0.0108 C.ar      1 MOL1        0.0962
     29 N            7.4878    0.0596    0.0029 N.am      1 MOL1       -0.2049
     30  H           7.8172   -3.3146    0.1256 H         1 MOL1        0.0530
     31  H           7.0357   -2.3145    1.6082 H         1 MOL1        0.0530
     32  H           5.1779   -3.0959    0.1226 H         1 MOL1        0.0495
     33  H           6.0913   -2.4441   -1.4786 H         1 MOL1        0.0495
     34  H           3.3047   -1.5397   -0.2943 H         1 MOL1        0.0912
     35  H           0.6162    0.1484   -1.3741 H         1 MOL1        0.0503
     36  H           0.9154   -0.7232    0.3431 H         1 MOL1        0.0503
     37  H          -0.4280    2.1980    0.1204 H         1 MOL1        0.0465
     38  H          -0.5078    0.8897    1.5693 H         1 MOL1        0.0465
     39  H          -1.7117    0.5563   -1.4446 H         1 MOL1        0.0488
     40  H          -2.8272    2.4499   -0.0846 H         1 MOL1        0.0474
     41  H          -3.1004    1.2099    1.4073 H         1 MOL1        0.0474
     42  H          -5.1915    1.4123   -0.0996 H         1 MOL1        0.0568
     43  H          -4.1239    0.8970   -1.6552 H         1 MOL1        0.0568
     44  H          -5.6065   -0.9189   -2.0276 H         1 MOL1        0.0598
     45  H          -5.7569   -2.3484   -0.7425 H         1 MOL1        0.0598
     46  H          -7.1647    0.9469   -1.6640 H         1 MOL1        0.0908
     47  H          -9.2438    1.7541   -0.8515 H         1 MOL1        0.0906
     48  H         -10.3238    0.6507    0.9548 H         1 MOL1        0.0906
     49  H          -9.3179   -1.2585    1.9499 H         1 MOL1        0.0906
     50  H          -7.2363   -2.0620    1.1402 H         1 MOL1        0.0908
     51  H          -3.5045   -2.6256   -0.2546 H         1 MOL1        0.0568
     52  H          -3.1919   -1.3966   -1.7412 H         1 MOL1        0.0568
     53  H          -1.1279   -1.6961   -0.2480 H         1 MOL1        0.0474
     54  H          -2.1430   -1.0999    1.3221 H         1 MOL1        0.0474
     55  H           6.1510    2.3084    0.2150 H         1 MOL1        0.0937
     56  H           7.9868    0.7804   -0.0819 H         1 MOL1        0.2055
@<TRIPOS>BOND
     1      1      2 2 
     2      2      3 1 
     3      3      4 1 
     4      4      5 1 
     5      5      6 ar
     6      6      7 ar
     7      7      8 ar
     8      8      9 1 
     9      8     24 ar
    10      9     10 1 
    11     10     11 1 
    12     11     12 1 
    13     12     13 1 
    14     13     14 1 
    15     14     15 1 
    16     14     22 1 
    17     15     16 1 
    18     16     17 ar
    19     17     18 ar
    20     18     19 ar
    21     19     20 ar
    22     20     21 ar
    23     21     16 ar
    24     22     23 1 
    25     23     11 1 
    26     24     25 ar
    27     25     26 ar
    28     26      7 ar
    29     26     27 ar
    30     27     28 ar
    31     28      5 ar
    32     28     29 1 
    33     29      2 am
    34      3     30 1 
    35      3     31 1 
    36      4     32 1 
    37      4     33 1 
    38      6     34 1 
    39      9     35 1 
    40      9     36 1 
    41     10     37 1 
    42     10     38 1 
    43     11     39 1 
    44     12     40 1 
    45     12     41 1 
    46     13     42 1 
    47     13     43 1 
    48     15     44 1 
    49     15     45 1 
    50     17     46 1 
    51     18     47 1 
    52     19     48 1 
    53     20     49 1 
    54     21     50 1 
    55     22     51 1 
    56     22     52 1 
    57     23     53 1 
    58     23     54 1 
    59     27     55 1 
    60     29     56 1 
@<TRIPOS>SUBSTRUCTURE
     1 MOL1         1 MOLECULE          1 A
