# Molecule written by the XED library from Cresset
@<TRIPOS>MOLECULE
CHEMBL3114556
    55     56      1
SMALL
USER_CHARGES
@<TRIPOS>ATOM
      1 C           -2.1394   -4.6763    0.2804 C.3       1 MOL1       -0.1122
      2 C           -1.3260   -3.3705    0.3247 C.3       1 MOL1       -0.0203
      3 C           -0.6781   -3.2651    1.7189 C.3       1 MOL1       -0.1122
      4 C           -0.2104   -3.4986   -0.7240 C.3       1 MOL1       -0.1122
      5 C           -2.2504   -2.1674   -0.0178 C.3       1 MOL1        0.0740
      6 O           -3.4753   -2.2474    0.7304 O.3       1 MOL1       -0.4291
      7 C           -1.6646   -0.7789    0.2185 C.2       1 MOL1        0.3006
      8 O           -0.5571   -0.6263    0.7138 O.2       1 MOL1       -0.4159
      9 N           -2.4809    0.2540   -0.1021 N.am      1 MOL1       -0.3861
     10 C           -3.7893    0.0629   -0.7742 C.3       1 MOL1        0.0882
     11 C           -4.4751    1.3361   -1.3065 C.3       1 MOL1       -0.0023
     12 O           -4.3302    2.4108   -0.3642 O.3       1 MOL1       -0.2486
     13 C           -2.9526    2.7821   -0.1963 C.3       1 MOL1        0.0157
     14 C           -2.1401    1.6113    0.3869 C.3       1 MOL1        0.1714
     15 C           -0.6971    2.0601    0.3067 C.2       1 MOL1        0.3268
     16 O           -0.2235    2.8305    1.1293 O.2       1 MOL1       -0.4176
     17 N           -0.0321    1.5614   -0.7468 N.am      1 MOL1       -0.3832
     18 C            1.3363    2.0324   -1.0077 C.3       1 MOL1        0.1154
     19 C            2.4212    1.0487   -0.5880 C.ar      1 MOL1       -0.0323
     20 C            2.1295   -0.2964   -0.5994 C.ar      1 MOL1       -0.0576
     21 C            3.0678   -1.2330   -0.2340 C.ar      1 MOL1        0.0436
     22 Cl           2.6657   -2.9241   -0.2670 Cl        1 MOL1       -0.1082
     23 C            4.3211   -0.8218    0.1536 C.ar      1 MOL1       -0.0637
     24 C            4.6225    0.5192    0.1638 C.ar      1 MOL1       -0.0779
     25 C            3.6861    1.4609   -0.2117 C.ar      1 MOL1       -0.0513
     26 C            4.0625    2.9372   -0.2077 C.3       1 MOL1       -0.0191
     27 N            5.5092    3.1631   -0.1331 N.3       1 MOL1       -0.6086
     28 H           -2.5029   -2.3046   -1.1818 H         1 MOL1        0.0726
     29 H           -2.4090    1.5734    1.5552 H         1 MOL1        0.0695
     30  H          -2.8972   -4.7086    1.2092 H         1 MOL1        0.0438
     31  H          -2.7471   -4.7347   -0.7525 H         1 MOL1        0.0438
     32  H          -1.3975   -5.6160    0.3597 H         1 MOL1        0.0438
     33  H          -0.1888   -4.3202    2.0166 H         1 MOL1        0.0438
     34  H           0.2032   -2.4508    1.7066 H         1 MOL1        0.0438
     35  H          -1.5054   -2.9587    2.5319 H         1 MOL1        0.0438
     36  H           0.3696   -2.4575   -0.8161 H         1 MOL1        0.0438
     37  H          -0.6813   -3.7866   -1.7895 H         1 MOL1        0.0438
     38  H           0.5610   -4.3553   -0.3876 H         1 MOL1        0.0438
     39  H          -4.0036   -3.0683    0.4884 H         1 MOL1        0.3291
     40  H          -3.7036   -0.6743   -1.7150 H         1 MOL1        0.0610
     41  H          -4.5422   -0.4114    0.0301 H         1 MOL1        0.0610
     42  H          -3.9896    1.6411   -2.3614 H         1 MOL1        0.0652
     43  H          -5.6427    1.1229   -1.4838 H         1 MOL1        0.0652
     44  H          -2.4798    3.0915   -1.2558 H         1 MOL1        0.0657
     45  H          -2.8751    3.7235    0.5441 H         1 MOL1        0.0657
     46  H          -0.4042    0.9658   -1.2785 H         1 MOL1        0.2040
     47  H           1.4506    3.0428   -0.3730 H         1 MOL1        0.0620
     48  H           1.4629    2.3034   -2.1708 H         1 MOL1        0.0620
     49  H           1.2183   -0.5908   -0.8770 H         1 MOL1        0.0941
     50  H           5.0105   -1.4942    0.4233 H         1 MOL1        0.0939
     51  H           5.5356    0.8167    0.4424 H         1 MOL1        0.0908
     52  H           3.5462    3.4733    0.7339 H         1 MOL1        0.0594
     53  H           3.6640    3.4402   -1.2226 H         1 MOL1        0.0594
     54  H           6.0031    2.8046   -0.9590 H         1 MOL1        0.2740
     55  H           5.9074    2.8078    0.7444 H         1 MOL1        0.2740
@<TRIPOS>BOND
     1      1      2 1 
     2      2      3 1 
     3      2      4 1 
     4      2      5 1 
     5      5      6 1 
     6      5      7 1 
     7      7      8 2 
     8      7      9 am
     9      9     10 1 
    10     10     11 1 
    11     11     12 1 
    12     12     13 1 
    13     13     14 1 
    14     14      9 1 
    15     14     15 1 
    16     15     16 2 
    17     15     17 am
    18     17     18 1 
    19     18     19 1 
    20     19     20 ar
    21     20     21 ar
    22     21     22 1 
    23     21     23 ar
    24     23     24 ar
    25     24     25 ar
    26     25     19 ar
    27     25     26 1 
    28     26     27 1 
    29      1     30 1 
    30      1     31 1 
    31      1     32 1 
    32      3     33 1 
    33      3     34 1 
    34      3     35 1 
    35      4     36 1 
    36      4     37 1 
    37      4     38 1 
    38      5     28 1 
    39      6     39 1 
    40     10     40 1 
    41     10     41 1 
    42     11     42 1 
    43     11     43 1 
    44     13     44 1 
    45     13     45 1 
    46     14     29 1 
    47     17     46 1 
    48     18     47 1 
    49     18     48 1 
    50     20     49 1 
    51     23     50 1 
    52     24     51 1 
    53     26     52 1 
    54     26     53 1 
    55     27     54 1 
    56     27     55 1 
@<TRIPOS>SUBSTRUCTURE
     1 MOL1         1 MOLECULE          1 A
