# Molecule written by the XED library from Cresset
@<TRIPOS>MOLECULE
CHEMBL444074
    51     54      1
SMALL
USER_CHARGES
@<TRIPOS>ATOM
      1 C           -3.9508   -4.4474    0.1069 C.3       1 MOL1       -0.0647
      2 C           -3.2566   -3.1032    0.0903 C.ar      1 MOL1       -0.0031
      3 C           -1.9035   -2.8290    0.2197 C.ar      1 MOL1       -0.0803
      4 C           -1.8104   -1.4859    0.1438 C.ar      1 MOL1        0.0966
      5 C           -0.5157   -0.7767    0.2796 C.2       1 MOL1        0.3351
      6 O           -0.5313    0.3283    0.8116 O.2       1 MOL1       -0.4058
      7 N            0.6090   -1.4063   -0.1390 N.am      1 MOL1       -0.2233
      8 C            1.9416   -0.9691   -0.0936 C.ar      1 MOL1        0.0732
      9 C            2.9600   -1.8702   -0.3467 C.ar      1 MOL1       -0.1011
     10 C            4.2713   -1.4738   -0.3111 C.ar      1 MOL1       -0.0774
     11 C            4.6249   -0.1617   -0.0240 C.ar      1 MOL1       -0.0457
     12 C            3.5923    0.7355    0.2241 C.ar      1 MOL1       -0.0774
     13 C            2.2766    0.3440    0.1917 C.ar      1 MOL1       -0.1011
     14 C            6.0280    0.2468    0.0111 C.ar      1 MOL1       -0.0221
     15 C            7.0503   -0.6917    0.0819 C.ar      1 MOL1       -0.0866
     16 C            8.3703   -0.3120    0.1112 C.ar      1 MOL1       -0.0898
     17 C            8.7053    1.0210    0.0716 C.ar      1 MOL1       -0.0954
     18 C            7.7114    1.9692    0.0038 C.ar      1 MOL1       -0.0898
     19 C            6.3919    1.5868   -0.0259 C.ar      1 MOL1       -0.0866
     20 N           -3.0387   -0.8923   -0.0455 N.pl3     1 MOL1        0.0935
     21 N           -3.8832   -1.9634   -0.0565 N.2       1 MOL1       -0.2801
     22 C           -3.4977    0.4224   -0.2284 C.ar      1 MOL1        0.0739
     23 C           -2.6625    1.4334   -0.6748 C.ar      1 MOL1       -0.0695
     24 C           -3.1444    2.7096   -0.8483 C.ar      1 MOL1       -0.0859
     25 C           -4.4644    2.9923   -0.5892 C.ar      1 MOL1       -0.0719
     26 C           -5.3254    1.9956   -0.1555 C.ar      1 MOL1       -0.0065
     27 C           -4.8257    0.7167    0.0160 C.ar      1 MOL1       -0.0566
     28 C           -6.7637    2.2770    0.1166 C.2       1 MOL1        0.1549
     29 N           -7.1279    3.3825    0.7049 N.2       1 MOL1       -0.5833
     30 N           -7.6886    1.3644   -0.2518 N.am      1 MOL1       -0.4206
     31  H          -5.1399   -4.2833    0.1029 H         1 MOL1        0.0476
     32  H          -3.6319   -5.0732   -0.8658 H         1 MOL1        0.0476
     33  H          -3.6336   -5.0513    1.0934 H         1 MOL1        0.0476
     34  H          -1.1603   -3.4843    0.3528 H         1 MOL1        0.0930
     35  H           0.4932   -2.2114   -0.4767 H         1 MOL1        0.2056
     36  H           2.7365   -2.8217   -0.5577 H         1 MOL1        0.0919
     37  H           4.9806   -2.1487   -0.5022 H         1 MOL1        0.0910
     38  H           3.8040    1.6880    0.4355 H         1 MOL1        0.0910
     39  H           1.5584    1.0142    0.3753 H         1 MOL1        0.0919
     40  H           6.8313   -1.6649    0.1179 H         1 MOL1        0.0910
     41  H           9.0887   -1.0058    0.1627 H         1 MOL1        0.0906
     42  H           9.6655    1.2992    0.0931 H         1 MOL1        0.0906
     43  H           7.9503    2.9397   -0.0246 H         1 MOL1        0.0906
     44  H           5.6873    2.2920   -0.0791 H         1 MOL1        0.0910
     45  H          -1.7036    1.2358   -0.8734 H         1 MOL1        0.0919
     46  H          -2.5325    3.4340   -1.1665 H         1 MOL1        0.0906
     47  H          -4.8040    3.9233   -0.7229 H         1 MOL1        0.0910
     48  H          -5.4393   -0.0105    0.3245 H         1 MOL1        0.0923
     49  H          -6.3533    3.9646    0.9511 H         1 MOL1        0.2200
     50  H          -7.4471    0.6158   -0.6475 H         1 MOL1        0.2753
     51  H          -8.5408    1.5214   -0.0968 H         1 MOL1        0.2753
@<TRIPOS>BOND
     1      1      2 1 
     2      2      3 ar
     3      3      4 ar
     4      4      5 1 
     5      4     20 ar
     6      5      6 2 
     7      5      7 am
     8      7      8 1 
     9      8      9 ar
    10      9     10 ar
    11     10     11 ar
    12     11     12 ar
    13     11     14 1 
    14     12     13 ar
    15     13      8 ar
    16     14     15 ar
    17     15     16 ar
    18     16     17 ar
    19     17     18 ar
    20     18     19 ar
    21     19     14 ar
    22     20     21 ar
    23     20     22 1 
    24     21      2 ar
    25     22     23 ar
    26     23     24 ar
    27     24     25 ar
    28     25     26 ar
    29     26     27 ar
    30     26     28 1 
    31     27     22 ar
    32     28     29 2 
    33     28     30 am
    34      1     31 1 
    35      1     32 1 
    36      1     33 1 
    37      3     34 1 
    38      7     35 1 
    39      9     36 1 
    40     10     37 1 
    41     12     38 1 
    42     13     39 1 
    43     15     40 1 
    44     16     41 1 
    45     17     42 1 
    46     18     43 1 
    47     19     44 1 
    48     23     45 1 
    49     24     46 1 
    50     25     47 1 
    51     27     48 1 
    52     29     49 1 
    53     30     50 1 
    54     30     51 1 
@<TRIPOS>SUBSTRUCTURE
     1 MOL1         1 MOLECULE          1 A
