# Molecule written by the XED library from Cresset
@<TRIPOS>MOLECULE
CHEMBL50467
    38     39      1
SMALL
USER_CHARGES
@<TRIPOS>ATOM
      1 C           -5.3872    1.6950    0.3552 C.3       1 MOL1       -0.0668
      2 N           -4.4758    0.6166   -0.0690 N.pl3     1 MOL1       -0.1436
      3 C           -5.1338   -0.2650   -1.0501 C.3       1 MOL1       -0.0668
      4 C           -3.0810    0.7922   -0.0458 C.ar      1 MOL1        0.0661
      5 C           -2.5625    2.0547   -0.1072 C.ar      1 MOL1       -0.1338
      6 C           -1.1876    2.2806   -0.0827 C.ar      1 MOL1       -0.0858
      7 C           -0.3259    1.2402    0.0166 C.ar      1 MOL1       -0.1291
      8 C           -0.7937   -0.0830    0.1003 C.ar      1 MOL1        0.0006
      9 C            0.0888   -1.1846    0.2314 C.ar      1 MOL1        0.0787
     10 C           -0.4020   -2.4507    0.2793 C.ar      1 MOL1       -0.0617
     11 C           -1.7774   -2.6804    0.2280 C.ar      1 MOL1       -0.0989
     12 C           -2.6414   -1.6404    0.1322 C.ar      1 MOL1       -0.0725
     13 C           -2.1839   -0.3104    0.0574 C.ar      1 MOL1       -0.0222
     14 S            1.8727   -0.9708    0.3838 S.3       1 MOL1        0.5495
     15 O            2.4200   -2.2468    0.0508 O.2       1 MOL1       -0.3072
     16 O            2.1457    0.2493    1.0719 O.2       1 MOL1       -0.3072
     17 N            3.1600   -0.5559   -0.5178 N.pl3     1 MOL1       -0.2753
     18 N            3.6768    0.7379   -0.3834 N.2       1 MOL1       -0.3867
     19 C            4.9720    0.8372   -0.2235 C.2       1 MOL1        0.1022
     20 N            5.5654    2.0474   -0.1151 N.am      1 MOL1       -0.4147
     21 N            5.7847   -0.2443   -0.1429 N.am      1 MOL1       -0.4147
     22  H          -6.4375    1.2329    0.7078 H         1 MOL1        0.0545
     23  H          -4.9170    2.3117    1.2717 H         1 MOL1        0.0545
     24  H          -5.5736    2.4446   -0.5633 H         1 MOL1        0.0545
     25  H          -5.8891    0.3563   -1.7466 H         1 MOL1        0.0545
     26  H          -5.7542   -1.1052   -0.4589 H         1 MOL1        0.0545
     27  H          -4.3277   -0.8002   -1.7600 H         1 MOL1        0.0545
     28  H          -3.1844    2.8349   -0.1731 H         1 MOL1        0.0917
     29  H          -0.8356    3.2150   -0.1368 H         1 MOL1        0.0906
     30  H           0.6572    1.4187    0.0328 H         1 MOL1        0.0910
     31  H           0.2270   -3.2234    0.3645 H         1 MOL1        0.0915
     32  H          -2.1277   -3.6162    0.2708 H         1 MOL1        0.0906
     33  H          -3.6235   -1.8242    0.1103 H         1 MOL1        0.0910
     34  H           3.3625   -1.0202   -1.2405 H         1 MOL1        0.2148
     35  H           5.0674    2.7726   -0.0942 H         1 MOL1        0.2755
     36  H           6.4204    2.1042    0.0855 H         1 MOL1        0.2755
     37  H           5.4558   -1.0511   -0.2581 H         1 MOL1        0.2755
     38  H           6.6579   -0.1359   -0.1213 H         1 MOL1        0.2755
@<TRIPOS>BOND
     1      1      2 1 
     2      2      3 1 
     3      2      4 1 
     4      4      5 ar
     5      5      6 ar
     6      6      7 ar
     7      7      8 ar
     8      8      9 ar
     9      9     10 ar
    10      9     14 1 
    11     10     11 ar
    12     11     12 ar
    13     12     13 ar
    14     13      4 ar
    15     13      8 ar
    16     14     15 2 
    17     14     16 2 
    18     14     17 1 
    19     17     18 1 
    20     18     19 2 
    21     19     20 am
    22     19     21 am
    23      1     22 1 
    24      1     23 1 
    25      1     24 1 
    26      3     25 1 
    27      3     26 1 
    28      3     27 1 
    29      5     28 1 
    30      6     29 1 
    31      7     30 1 
    32     10     31 1 
    33     11     32 1 
    34     12     33 1 
    35     17     34 1 
    36     20     35 1 
    37     20     36 1 
    38     21     37 1 
    39     21     38 1 
@<TRIPOS>SUBSTRUCTURE
     1 MOL1         1 MOLECULE          1 A
