# Molecule written by the XED library from Cresset
@<TRIPOS>MOLECULE
CHEMBL3632759
    47     50      1
SMALL
USER_CHARGES
@<TRIPOS>ATOM
      1 N           -7.5089    1.1698    0.0304 N.am      1 MOL1       -0.4219
      2 C           -6.6400    0.1295    0.0021 C.2       1 MOL1        0.1475
      3 N           -7.0441   -1.1116   -0.0068 N.2       1 MOL1       -0.5934
      4 C           -5.1719    0.3647   -0.0182 C.ar      1 MOL1       -0.0256
      5 C           -4.6087    1.6429    0.1770 C.ar      1 MOL1       -0.0697
      6 C           -3.2582    1.8420    0.1774 C.ar      1 MOL1       -0.0934
      7 C           -2.4487    0.7316   -0.0237 C.ar      1 MOL1        0.0749
      8 N           -1.0870    0.7407   -0.0330 N.pl3     1 MOL1       -0.1762
      9 C           -0.7386   -0.5745   -0.2612 C.ar      1 MOL1        0.0696
     10 C           -1.8276   -1.3548   -0.3941 C.ar      1 MOL1       -0.1153
     11 C           -2.9740   -0.5250   -0.2308 C.ar      1 MOL1       -0.0368
     12 C           -4.3494   -0.7212   -0.2265 C.ar      1 MOL1       -0.0522
     13 C            0.6505   -0.9784   -0.3131 C.ar      1 MOL1        0.0868
     14 C            0.9921   -2.2395   -0.7703 C.ar      1 MOL1       -0.0663
     15 C            2.3067   -2.6033   -0.7912 C.ar      1 MOL1       -0.0401
     16 C            3.2445   -1.7062   -0.3460 C.ar      1 MOL1       -0.0741
     17 C            2.8458   -0.4666    0.0987 C.ar      1 MOL1        0.0663
     18 N            1.5566   -0.0704    0.1155 N.ar      1 MOL1       -0.3429
     19 C            3.8589    0.5475    0.6242 C.3       1 MOL1        0.0525
     20 O            3.1562    1.0770    1.7575 O.3       1 MOL1       -0.4298
     21 C            5.2114    0.0126    1.1696 C.3       1 MOL1       -0.0551
     22 C            6.3200   -0.1577    0.1050 C.3       1 MOL1       -0.0870
     23 C            6.4854    1.1300   -0.7201 C.3       1 MOL1       -0.0919
     24 C            5.1509    1.4473   -1.4159 C.3       1 MOL1       -0.0870
     25 C            4.0809    1.7347   -0.3442 C.3       1 MOL1       -0.0551
     26 H           -0.5506    1.4305    0.0800 H         1 MOL1        0.2043
     27  H          -8.3762    1.0245    0.0606 H         1 MOL1        0.2753
     28  H          -7.2166    1.9982    0.0153 H         1 MOL1        0.2753
     29  H          -8.0412   -1.1867    0.0111 H         1 MOL1        0.2200
     30  H          -5.2082    2.4279    0.3251 H         1 MOL1        0.0910
     31  H          -2.8670    2.7510    0.3209 H         1 MOL1        0.0919
     32  H          -1.8322   -2.3405   -0.5621 H         1 MOL1        0.0923
     33  H          -4.7349   -1.6333   -0.3668 H         1 MOL1        0.0914
     34  H           0.2860   -2.8757   -1.0805 H         1 MOL1        0.0919
     35  H           2.5805   -3.5078   -1.1181 H         1 MOL1        0.0906
     36  H           4.2096   -1.9587   -0.3392 H         1 MOL1        0.0917
     37  H           3.6786    1.8139    2.2003 H         1 MOL1        0.3291
     38  H           5.0255   -1.0355    1.7237 H         1 MOL1        0.0487
     39  H           5.6122    0.8035    1.9783 H         1 MOL1        0.0487
     40  H           7.3546   -0.4055    0.6603 H         1 MOL1        0.0460
     41  H           6.0649   -1.0547   -0.6478 H         1 MOL1        0.0460
     42  H           6.7841    2.0378    0.0058 H         1 MOL1        0.0460
     43  H           7.3453    0.9725   -1.5420 H         1 MOL1        0.0460
     44  H           4.8145    0.5116   -2.0876 H         1 MOL1        0.0460
     45  H           5.2851    2.4150   -2.1128 H         1 MOL1        0.0460
     46  H           4.4574    2.6729    0.3023 H         1 MOL1        0.0487
     47  H           3.0479    2.0320   -0.8786 H         1 MOL1        0.0487
@<TRIPOS>BOND
     1      1      2 am
     2      2      3 2 
     3      2      4 1 
     4      4      5 ar
     5      5      6 ar
     6      6      7 ar
     7      7      8 ar
     8      8      9 ar
     9      9     10 ar
    10      9     13 1 
    11     10     11 ar
    12     11      7 ar
    13     11     12 ar
    14     12      4 ar
    15     13     14 ar
    16     14     15 ar
    17     15     16 ar
    18     16     17 ar
    19     17     18 ar
    20     17     19 1 
    21     18     13 ar
    22     19     20 1 
    23     19     21 1 
    24     21     22 1 
    25     22     23 1 
    26     23     24 1 
    27     24     25 1 
    28     25     19 1 
    29      1     27 1 
    30      1     28 1 
    31      3     29 1 
    32      5     30 1 
    33      6     31 1 
    34      8     26 1 
    35     10     32 1 
    36     12     33 1 
    37     14     34 1 
    38     15     35 1 
    39     16     36 1 
    40     20     37 1 
    41     21     38 1 
    42     21     39 1 
    43     22     40 1 
    44     22     41 1 
    45     23     42 1 
    46     23     43 1 
    47     24     44 1 
    48     24     45 1 
    49     25     46 1 
    50     25     47 1 
@<TRIPOS>SUBSTRUCTURE
     1 MOL1         1 MOLECULE          1 A
