# Molecule written by the XED library from Cresset
@<TRIPOS>MOLECULE
CHEMBL60831
    45     47      1
SMALL
USER_CHARGES
@<TRIPOS>ATOM
      1 C           -7.8767   -1.1105    0.3266 C.3       1 MOL1       -0.1169
      2 C           -6.4008   -1.5328    0.2648 C.3       1 MOL1       -0.0499
      3 C           -6.2052   -2.4434   -0.9603 C.3       1 MOL1       -0.1169
      4 C           -5.5212   -0.2706    0.1716 C.3       1 MOL1       -0.0227
      5 O           -4.1141   -0.5866    0.2621 O.3       1 MOL1       -0.1986
      6 C           -3.2123    0.4057    0.1614 C.ar      1 MOL1        0.0660
      7 C           -3.5711    1.7374    0.0850 C.ar      1 MOL1       -0.0809
      8 C           -2.6015    2.7087   -0.0204 C.ar      1 MOL1       -0.1016
      9 C           -1.2757    2.3592   -0.0487 C.ar      1 MOL1       -0.0931
     10 C           -0.8714    1.0314    0.0254 C.ar      1 MOL1       -0.0045
     11 C           -1.8697    0.0623    0.1259 C.ar      1 MOL1        0.0722
     12 O           -1.5593   -1.2637    0.1758 O.3       1 MOL1       -0.3778
     13 C            0.5561    0.7279   -0.0025 C.ar      1 MOL1        0.0618
     14 C            1.1462   -0.4431    0.3083 C.ar      1 MOL1       -0.1486
     15 C            2.5513   -0.2949    0.1290 C.ar      1 MOL1       -0.0394
     16 C            3.6611   -1.1193    0.2664 C.ar      1 MOL1       -0.0593
     17 C            4.9054   -0.5969   -0.0197 C.ar      1 MOL1       -0.0266
     18 C            5.0250    0.7462   -0.4277 C.ar      1 MOL1       -0.0765
     19 C            3.9369    1.5600   -0.5643 C.ar      1 MOL1       -0.0936
     20 C            2.6931    1.0117   -0.2806 C.ar      1 MOL1        0.0666
     21 N            1.5006    1.6680   -0.3708 N.pl3     1 MOL1       -0.1768
     22 C            6.1299   -1.4363    0.1013 C.2       1 MOL1        0.1473
     23 N            6.1107   -2.7032   -0.2172 N.2       1 MOL1       -0.5935
     24 N            7.2720   -0.8627    0.5403 N.am      1 MOL1       -0.4220
     25 H            1.3685    2.5009   -0.6204 H         1 MOL1        0.2043
     26  H          -8.5687   -2.0882    0.3988 H         1 MOL1        0.0435
     27  H          -8.1576   -0.4965   -0.6654 H         1 MOL1        0.0435
     28  H          -8.0612   -0.4199    1.2904 H         1 MOL1        0.0435
     29  H          -6.1311   -2.1420    1.2632 H         1 MOL1        0.0501
     30  H          -5.0655   -2.8161   -1.0086 H         1 MOL1        0.0435
     31  H          -6.4700   -1.8343   -1.9596 H         1 MOL1        0.0435
     32  H          -6.9299   -3.3956   -0.8686 H         1 MOL1        0.0435
     33  H          -5.7524    0.2853   -0.8671 H         1 MOL1        0.0645
     34  H          -5.8127    0.4533    1.0833 H         1 MOL1        0.0645
     35  H          -4.5348    2.0015    0.1035 H         1 MOL1        0.0924
     36  H          -2.8646    3.6719   -0.0758 H         1 MOL1        0.0906
     37  H          -0.5890    3.0806   -0.1213 H         1 MOL1        0.0910
     38  H          -0.8260   -1.4942   -0.4722 H         1 MOL1        0.3295
     39  H           0.6823   -1.2744    0.6122 H         1 MOL1        0.0923
     40  H           3.5544   -2.0664    0.5672 H         1 MOL1        0.0914
     41  H           5.9333    1.1141   -0.6261 H         1 MOL1        0.0910
     42  H           4.0318    2.5112   -0.8578 H         1 MOL1        0.0919
     43  H           5.2212   -3.0087   -0.5559 H         1 MOL1        0.2200
     44  H           7.2899   -0.0117    0.7648 H         1 MOL1        0.2753
     45  H           8.0047   -1.3457    0.6051 H         1 MOL1        0.2753
@<TRIPOS>BOND
     1      1      2 1 
     2      2      3 1 
     3      2      4 1 
     4      4      5 1 
     5      5      6 1 
     6      6      7 ar
     7      7      8 ar
     8      8      9 ar
     9      9     10 ar
    10     10     11 ar
    11     10     13 1 
    12     11      6 ar
    13     11     12 1 
    14     13     14 ar
    15     14     15 ar
    16     15     16 ar
    17     16     17 ar
    18     17     18 ar
    19     17     22 1 
    20     18     19 ar
    21     19     20 ar
    22     20     15 ar
    23     20     21 ar
    24     21     13 ar
    25     22     23 2 
    26     22     24 am
    27      1     26 1 
    28      1     27 1 
    29      1     28 1 
    30      2     29 1 
    31      3     30 1 
    32      3     31 1 
    33      3     32 1 
    34      4     33 1 
    35      4     34 1 
    36      7     35 1 
    37      8     36 1 
    38      9     37 1 
    39     12     38 1 
    40     14     39 1 
    41     16     40 1 
    42     18     41 1 
    43     19     42 1 
    44     21     25 1 
    45     23     43 1 
    46     24     44 1 
    47     24     45 1 
@<TRIPOS>SUBSTRUCTURE
     1 MOL1         1 MOLECULE          1 A
