# Molecule written by the XED library from Cresset
@<TRIPOS>MOLECULE
CHEMBL44249
    44     45      1
SMALL
USER_CHARGES
@<TRIPOS>ATOM
      1 C           -1.4908   -2.4088    1.1090 C.3       1 MOL1       -0.0659
      2 C           -2.3429   -1.2173    0.7232 C.2       1 MOL1        0.0491
      3 C           -3.6649   -1.3077    0.4486 C.2       1 MOL1       -0.1169
      4 C           -4.4175   -0.1530    0.0802 C.2       1 MOL1       -0.0048
      5 C           -3.7465    1.0329   -0.0315 C.2       1 MOL1        0.0514
      6 N           -4.3560    2.2013   -0.3827 N.pl3     1 MOL1       -0.4712
      7 C           -2.3380    1.0838    0.2318 C.2       1 MOL1        0.2746
      8 O           -1.8003    2.1823    0.0753 O.2       1 MOL1       -0.4800
      9 N           -1.6906   -0.0259    0.6329 N.am      1 MOL1       -0.1845
     10 C           -0.2595    0.0993    0.9690 C.3       1 MOL1        0.1486
     11 C            0.6446   -0.4864   -0.0881 C.2       1 MOL1        0.3219
     12 O            0.2384   -0.8329   -1.1890 O.2       1 MOL1       -0.4181
     13 N            1.9168   -0.5690    0.3308 N.am      1 MOL1       -0.3833
     14 C            2.9431   -1.0895   -0.5826 C.3       1 MOL1        0.1140
     15 C            4.3306   -0.5068   -0.3284 C.ar      1 MOL1       -0.0562
     16 C            5.3573   -1.4060   -0.1358 C.ar      1 MOL1       -0.0358
     17 C            6.6200   -0.9502    0.0862 C.ar      1 MOL1       -0.1028
     18 C            6.8404    0.4157    0.1142 C.ar      1 MOL1        0.1224
     19 N            8.1197    0.8991    0.3443 N.pl3     1 MOL1       -0.4398
     20 N            5.8677    1.3325   -0.0703 N.ar      1 MOL1       -0.3666
     21 C            4.6294    0.8385   -0.2910 C.ar      1 MOL1        0.0398
     22 C            3.5326    1.8652   -0.5013 C.3       1 MOL1       -0.0659
     23 C           -5.8991   -0.3290   -0.1798 C.3       1 MOL1        0.4035
     24 F           -6.6458    0.3018    0.8080 F         1 MOL1       -0.1514
     25 F           -6.2884    0.2030   -1.4045 F         1 MOL1       -0.1514
     26 F           -6.2734   -1.6684   -0.1860 F         1 MOL1       -0.1514
     27  H          -1.0840   -2.3043    2.2331 H         1 MOL1        0.0476
     28  H          -2.1427   -3.4148    1.0566 H         1 MOL1        0.0476
     29  H          -0.5707   -2.5036    0.3449 H         1 MOL1        0.0476
     30  H          -4.1138   -2.1862    0.5140 H         1 MOL1        0.0919
     31  H          -5.2326    2.2403   -0.3240 H         1 MOL1        0.2750
     32  H          -3.9085    2.9490   -0.2650 H         1 MOL1        0.2750
     33  H           0.0154    1.2636    1.0587 H         1 MOL1        0.0657
     34  H          -0.0333   -0.3891    2.0395 H         1 MOL1        0.0657
     35  H           2.1397   -0.3184    1.1460 H         1 MOL1        0.2040
     36  H           2.9547   -2.2833   -0.4483 H         1 MOL1        0.0620
     37  H           2.6155   -0.8543   -1.7127 H         1 MOL1        0.0620
     38  H           5.1787   -2.3895   -0.1606 H         1 MOL1        0.0908
     39  H           7.3753   -1.5897    0.2264 H         1 MOL1        0.0926
     40  H           8.8014    0.3421    0.3119 H         1 MOL1        0.2753
     41  H           8.2712    1.7569    0.2220 H         1 MOL1        0.2753
     42  H           2.7944    1.5158   -1.3794 H         1 MOL1        0.0476
     43  H           2.9078    1.9945    0.5151 H         1 MOL1        0.0476
     44  H           4.0285    2.9169   -0.7987 H         1 MOL1        0.0476
@<TRIPOS>BOND
     1      1      2 1 
     2      2      3 2 
     3      3      4 1 
     4      4      5 2 
     5      4     23 1 
     6      5      6 1 
     7      5      7 1 
     8      7      8 2 
     9      7      9 am
    10      9      2 1 
    11      9     10 1 
    12     10     11 1 
    13     11     12 2 
    14     11     13 am
    15     13     14 1 
    16     14     15 1 
    17     15     16 ar
    18     16     17 ar
    19     17     18 ar
    20     18     19 1 
    21     18     20 ar
    22     20     21 ar
    23     21     15 ar
    24     21     22 1 
    25     23     24 1 
    26     23     25 1 
    27     23     26 1 
    28      1     27 1 
    29      1     28 1 
    30      1     29 1 
    31      3     30 1 
    32      6     31 1 
    33      6     32 1 
    34     10     33 1 
    35     10     34 1 
    36     13     35 1 
    37     14     36 1 
    38     14     37 1 
    39     16     38 1 
    40     17     39 1 
    41     19     40 1 
    42     19     41 1 
    43     22     42 1 
    44     22     43 1 
    45     22     44 1 
@<TRIPOS>SUBSTRUCTURE
     1 MOL1         1 MOLECULE          1 A
