# Molecule written by the XED library from Cresset
@<TRIPOS>MOLECULE
CHEMBL62490
    32     33      1
SMALL
USER_CHARGES
@<TRIPOS>ATOM
      1 N           -6.4226    0.7411    0.0030 N.am      1 MOL1       -0.4228
      2 C           -5.5411   -0.2890    0.0023 C.2       1 MOL1        0.1447
      3 N           -5.9307   -1.5353    0.0024 N.2       1 MOL1       -0.5956
      4 C           -4.0766   -0.0367    0.0005 C.ar      1 MOL1       -0.0292
      5 C           -3.5172    1.2351    0.0032 C.ar      1 MOL1       -0.0553
      6 C           -2.1561    1.4035   -0.0002 C.ar      1 MOL1       -0.0996
      7 C           -1.3035    0.3108   -0.0065 C.ar      1 MOL1        0.0896
      8 N            0.0865    0.5133   -0.0127 N.am      1 MOL1       -0.2166
      9 C            1.0745   -0.4173   -0.0014 C.2       1 MOL1        0.3235
     10 O            0.8559   -1.6264    0.0069 O.2       1 MOL1       -0.4158
     11 C            2.5083   -0.0229    0.0002 C.ar      1 MOL1        0.0140
     12 C            3.4666   -1.0331    0.0001 C.ar      1 MOL1       -0.0387
     13 C            4.8086   -0.7554    0.0010 C.ar      1 MOL1        0.0238
     14 Br           6.0560   -2.1617    0.0007 Br        1 MOL1       -0.0889
     15 C            5.2420    0.5543    0.0022 C.ar      1 MOL1       -0.0522
     16 C            4.3233    1.5717    0.0026 C.ar      1 MOL1       -0.0783
     17 C            2.9680    1.2961    0.0018 C.ar      1 MOL1        0.0813
     18 O            2.0951    2.3331    0.0027 O.3       1 MOL1       -0.3800
     19 C           -1.8601   -0.9596   -0.0084 C.ar      1 MOL1       -0.0996
     20 C           -3.2200   -1.1272   -0.0048 C.ar      1 MOL1       -0.0553
     21  H          -7.2886    0.5854    0.0038 H         1 MOL1        0.2753
     22  H          -6.1397    1.5729    0.0024 H         1 MOL1        0.2753
     23  H          -6.9270   -1.6221    0.0033 H         1 MOL1        0.2200
     24  H          -4.1072    2.0408    0.0073 H         1 MOL1        0.0910
     25  H          -1.7735    2.3274    0.0014 H         1 MOL1        0.0919
     26  H           0.3386    1.3523   -0.0269 H         1 MOL1        0.2056
     27  H           3.1697   -1.9880   -0.0009 H         1 MOL1        0.0938
     28  H           6.2206    0.7602    0.0029 H         1 MOL1        0.0934
     29  H           4.6359    2.5216    0.0035 H         1 MOL1        0.0924
     30  H           2.5724    3.2190    0.0033 H         1 MOL1        0.3295
     31  H          -1.2697   -1.7644   -0.0129 H         1 MOL1        0.0919
     32  H          -3.6014   -2.0516   -0.0065 H         1 MOL1        0.0910
@<TRIPOS>BOND
     1      1      2 am
     2      2      3 2 
     3      2      4 1 
     4      4      5 ar
     5      5      6 ar
     6      6      7 ar
     7      7      8 1 
     8      7     19 ar
     9      8      9 am
    10      9     10 2 
    11      9     11 1 
    12     11     12 ar
    13     12     13 ar
    14     13     14 1 
    15     13     15 ar
    16     15     16 ar
    17     16     17 ar
    18     17     11 ar
    19     17     18 1 
    20     19     20 ar
    21     20      4 ar
    22      1     21 1 
    23      1     22 1 
    24      3     23 1 
    25      5     24 1 
    26      6     25 1 
    27      8     26 1 
    28     12     27 1 
    29     15     28 1 
    30     16     29 1 
    31     18     30 1 
    32     19     31 1 
    33     20     32 1 
@<TRIPOS>SUBSTRUCTURE
     1 MOL1         1 MOLECULE          1 A
