# Molecule written by the XED library from Cresset
@<TRIPOS>MOLECULE
CHEMBL151562
    55     57      1
SMALL
USER_CHARGES
@<TRIPOS>ATOM
      1 C            5.7912   -3.9972    0.3195 C.3       1 MOL1       -0.0605
      2 N            4.3283   -3.7496    0.2931 N.2       1 MOL1       -0.4761
      3 C            3.8156   -2.6133   -0.0981 C.2       1 MOL1        0.1639
      4 N            4.5774   -1.5653   -0.4981 N.am      1 MOL1       -0.4210
      5 C            2.3303   -2.5054   -0.0945 C.ar      1 MOL1       -0.0020
      6 C            1.5861   -3.5388    0.4552 C.ar      1 MOL1       -0.0581
      7 C            0.2159   -3.4915    0.4711 C.ar      1 MOL1       -0.0722
      8 C           -0.4660   -2.4034   -0.0543 C.ar      1 MOL1       -0.0127
      9 C           -1.9459   -2.4542   -0.0379 C.2       1 MOL1       -0.0303
     10 C           -2.8137   -1.4106    0.0430 C.2       1 MOL1       -0.0280
     11 C           -4.2161   -1.9775   -0.0356 C.3       1 MOL1       -0.0457
     12 C           -5.3474   -1.0113    0.3233 C.3       1 MOL1       -0.0863
     13 C           -5.4419    0.0739   -0.7553 C.3       1 MOL1       -0.0863
     14 C           -4.6437    1.3059   -0.3223 C.3       1 MOL1       -0.0457
     15 C           -3.1698    1.1228   -0.0102 C.2       1 MOL1       -0.0280
     16 C           -2.5895    2.3469   -0.1057 C.2       1 MOL1       -0.0303
     17 C           -1.1411    2.6195   -0.0660 C.ar      1 MOL1       -0.0127
     18 C           -0.2787    2.0120   -0.9646 C.ar      1 MOL1       -0.0722
     19 C            1.0639    2.2822   -0.9300 C.ar      1 MOL1       -0.0581
     20 C            1.5806    3.1783   -0.0049 C.ar      1 MOL1       -0.0026
     21 C            0.7086    3.8056    0.8751 C.ar      1 MOL1       -0.0581
     22 C           -0.6355    3.5329    0.8456 C.ar      1 MOL1       -0.0722
     23 C            3.0398    3.4722    0.0348 C.2       1 MOL1        0.1561
     24 N            3.9161    2.5205   -0.1405 N.2       1 MOL1       -0.5779
     25 N            3.4415    4.7425    0.2596 N.am      1 MOL1       -0.4216
     26 C           -2.3499   -0.0496    0.2893 C.2       1 MOL1        0.1799
     27 O           -1.2791    0.1121    0.8548 O.2       1 MOL1       -0.3945
     28 C            0.2775   -1.3752   -0.6130 C.ar      1 MOL1       -0.0722
     29 C            1.6475   -1.4209   -0.6298 C.ar      1 MOL1       -0.0581
     30  H           5.9864   -5.1180    0.7010 H         1 MOL1        0.0565
     31  H           6.3265   -3.2295    1.0708 H         1 MOL1        0.0565
     32  H           6.2463   -3.8796   -0.7848 H         1 MOL1        0.0565
     33  H           5.4534   -1.6358   -0.5135 H         1 MOL1        0.2753
     34  H           4.2052   -0.8075   -0.7416 H         1 MOL1        0.2753
     35  H           2.0558   -4.3323    0.8421 H         1 MOL1        0.0910
     36  H          -0.2989   -4.2534    0.8647 H         1 MOL1        0.0910
     37  H          -2.3370   -3.3631   -0.1121 H         1 MOL1        0.0912
     38  H          -4.3981   -2.4008   -1.1437 H         1 MOL1        0.0492
     39  H          -4.3120   -2.8964    0.7313 H         1 MOL1        0.0492
     40  H          -6.3683   -1.6430    0.3356 H         1 MOL1        0.0463
     41  H          -5.1699   -0.5403    1.4132 H         1 MOL1        0.0463
     42  H          -6.5881    0.4159   -0.8602 H         1 MOL1        0.0463
     43  H          -5.0603   -0.3032   -1.8293 H         1 MOL1        0.0463
     44  H          -4.7759    2.0891   -1.2226 H         1 MOL1        0.0492
     45  H          -5.1701    1.7596    0.6555 H         1 MOL1        0.0492
     46  H          -3.1751    3.1396   -0.2208 H         1 MOL1        0.0912
     47  H          -0.6404    1.3761   -1.6449 H         1 MOL1        0.0910
     48  H           1.6717    1.8326   -1.5841 H         1 MOL1        0.0910
     49  H           1.0650    4.4632    1.5392 H         1 MOL1        0.0910
     50  H          -1.2519    3.9929    1.4849 H         1 MOL1        0.0910
     51  H           3.4955    1.6218   -0.2657 H         1 MOL1        0.2200
     52  H           2.8510    5.3850    0.3794 H         1 MOL1        0.2753
     53  H           4.3007    4.9313    0.2833 H         1 MOL1        0.2753
     54  H          -0.1935   -0.5906   -1.0102 H         1 MOL1        0.0910
     55  H           2.1545   -0.6640   -1.0391 H         1 MOL1        0.0910
@<TRIPOS>BOND
     1      1      2 1 
     2      2      3 2 
     3      3      4 am
     4      3      5 1 
     5      5      6 ar
     6      6      7 ar
     7      7      8 ar
     8      8      9 1 
     9      8     28 ar
    10      9     10 2 
    11     10     11 1 
    12     10     26 1 
    13     11     12 1 
    14     12     13 1 
    15     13     14 1 
    16     14     15 1 
    17     15     16 2 
    18     15     26 1 
    19     16     17 1 
    20     17     18 ar
    21     18     19 ar
    22     19     20 ar
    23     20     21 ar
    24     20     23 1 
    25     21     22 ar
    26     22     17 ar
    27     23     24 2 
    28     23     25 am
    29     26     27 2 
    30     28     29 ar
    31     29      5 ar
    32      1     30 1 
    33      1     31 1 
    34      1     32 1 
    35      4     33 1 
    36      4     34 1 
    37      6     35 1 
    38      7     36 1 
    39      9     37 1 
    40     11     38 1 
    41     11     39 1 
    42     12     40 1 
    43     12     41 1 
    44     13     42 1 
    45     13     43 1 
    46     14     44 1 
    47     14     45 1 
    48     16     46 1 
    49     18     47 1 
    50     19     48 1 
    51     21     49 1 
    52     22     50 1 
    53     24     51 1 
    54     25     52 1 
    55     25     53 1 
    56     28     54 1 
    57     29     55 1 
@<TRIPOS>SUBSTRUCTURE
     1 MOL1         1 MOLECULE          1 A
