# Molecule written by the XED library from Cresset
@<TRIPOS>MOLECULE
CHEMBL329127
    58     61      1
SMALL
USER_CHARGES
@<TRIPOS>ATOM
      1 N           -8.7238    0.5731    0.2558 N.am      1 MOL1       -0.4206
      2 C           -7.5862   -0.1617    0.1986 C.2       1 MOL1        0.1547
      3 N           -7.5944   -1.4608    0.3137 N.2       1 MOL1       -0.5832
      4 C           -6.2640    0.4942   -0.0053 C.ar      1 MOL1       -0.0081
      5 C           -6.1165    1.8620   -0.1878 C.ar      1 MOL1       -0.0850
      6 C           -4.8723    2.4116   -0.3825 C.ar      1 MOL1       -0.0862
      7 C           -3.7568    1.6094   -0.4009 C.ar      1 MOL1       -0.0858
      8 C           -3.8681    0.2404   -0.2222 C.ar      1 MOL1        0.0752
      9 C           -5.1283   -0.2976   -0.0219 C.ar      1 MOL1       -0.0734
     10 N           -2.7212   -0.5816   -0.2566 N.am      1 MOL1       -0.2443
     11 C           -2.8878   -1.9546   -0.7785 C.3       1 MOL1        0.0806
     12 C           -1.6818   -2.3718   -1.6181 C.3       1 MOL1       -0.0530
     13 C           -0.4666   -2.2638   -0.6991 C.3       1 MOL1        0.0775
     14 N           -0.3814   -0.9331   -0.0696 N.am      1 MOL1       -0.4032
     15 C            0.9395   -0.4171    0.3516 C.3       1 MOL1        0.0978
     16 C            2.1522   -1.3762    0.3876 C.3       1 MOL1       -0.0547
     17 C            3.3699   -0.6489    0.9934 C.3       1 MOL1       -0.0429
     18 N            3.7293    0.5366    0.1878 N.3       1 MOL1       -0.2519
     19 C            4.9196    1.2054    0.7526 C.3       1 MOL1       -0.0032
     20 C            6.2396    0.5721    0.3316 C.ar      1 MOL1       -0.0509
     21 C            6.7920   -0.4671    1.0484 C.ar      1 MOL1       -0.0846
     22 C            7.9887   -1.0236    0.6573 C.ar      1 MOL1       -0.0900
     23 C            8.6432   -0.5390   -0.4516 C.ar      1 MOL1       -0.0906
     24 C            8.0988    0.5009   -1.1690 C.ar      1 MOL1       -0.0900
     25 C            6.9003    1.0529   -0.7780 C.ar      1 MOL1       -0.0846
     26 C            2.5930    1.4753    0.1414 C.3       1 MOL1       -0.0429
     27 C            1.3485    0.8123   -0.4862 C.3       1 MOL1       -0.0547
     28 C           -1.4892   -0.1782    0.1709 C.2       1 MOL1        0.4227
     29 O           -1.3758    0.8921    0.7770 O.2       1 MOL1       -0.4526
     30  H          -9.5026    0.1794    0.3691 H         1 MOL1        0.2753
     31  H          -8.6963    1.4480    0.1806 H         1 MOL1        0.2753
     32  H          -8.5164   -1.8253    0.4451 H         1 MOL1        0.2200
     33  H          -6.9173    2.4587   -0.1794 H         1 MOL1        0.0910
     34  H          -4.7779    3.3986   -0.5123 H         1 MOL1        0.0906
     35  H          -2.8559    2.0184   -0.5464 H         1 MOL1        0.0919
     36  H          -5.2226   -1.2840    0.1109 H         1 MOL1        0.0923
     37  H          -3.0074   -2.7129    0.1437 H         1 MOL1        0.0595
     38  H          -3.8489   -2.0480   -1.4919 H         1 MOL1        0.0595
     39  H          -1.5577   -1.6293   -2.5522 H         1 MOL1        0.0487
     40  H          -1.8114   -3.5008   -2.0032 H         1 MOL1        0.0487
     41  H          -0.5586   -3.0913    0.1653 H         1 MOL1        0.0593
     42  H           0.5002   -2.4963   -1.3674 H         1 MOL1        0.0593
     43  H           0.7849   -0.0291    1.4767 H         1 MOL1        0.0618
     44  H           2.4623   -1.7023   -0.7242 H         1 MOL1        0.0487
     45  H           1.8903   -2.3475    1.0419 H         1 MOL1        0.0487
     46  H           3.1023   -0.3214    2.1162 H         1 MOL1        0.0568
     47  H           4.2914   -1.4158    1.0158 H         1 MOL1        0.0568
     48  H           4.9642    2.3414    0.3651 H         1 MOL1        0.0598
     49  H           4.8542    1.2552    1.9506 H         1 MOL1        0.0598
     50  H           6.3205   -0.8202    1.8563 H         1 MOL1        0.0908
     51  H           8.3835   -1.7798    1.1799 H         1 MOL1        0.0906
     52  H           9.5133   -0.9420   -0.7358 H         1 MOL1        0.0906
     53  H           8.5737    0.8557   -1.9741 H         1 MOL1        0.0906
     54  H           6.5079    1.8097   -1.3004 H         1 MOL1        0.0908
     55  H           2.8682    2.4306   -0.5301 H         1 MOL1        0.0568
     56  H           2.3325    1.8364    1.2558 H         1 MOL1        0.0568
     57  H           0.4540    1.6113   -0.5097 H         1 MOL1        0.0487
     58  H           1.5989    0.4662   -1.6079 H         1 MOL1        0.0487
@<TRIPOS>BOND
     1      1      2 am
     2      2      3 2 
     3      2      4 1 
     4      4      5 ar
     5      5      6 ar
     6      6      7 ar
     7      7      8 ar
     8      8      9 ar
     9      8     10 1 
    10      9      4 ar
    11     10     11 1 
    12     11     12 1 
    13     12     13 1 
    14     13     14 1 
    15     14     15 1 
    16     14     28 am
    17     15     16 1 
    18     16     17 1 
    19     17     18 1 
    20     18     19 1 
    21     18     26 1 
    22     19     20 1 
    23     20     21 ar
    24     21     22 ar
    25     22     23 ar
    26     23     24 ar
    27     24     25 ar
    28     25     20 ar
    29     26     27 1 
    30     27     15 1 
    31     28     10 am
    32     28     29 2 
    33      1     30 1 
    34      1     31 1 
    35      3     32 1 
    36      5     33 1 
    37      6     34 1 
    38      7     35 1 
    39      9     36 1 
    40     11     37 1 
    41     11     38 1 
    42     12     39 1 
    43     12     40 1 
    44     13     41 1 
    45     13     42 1 
    46     15     43 1 
    47     16     44 1 
    48     16     45 1 
    49     17     46 1 
    50     17     47 1 
    51     19     48 1 
    52     19     49 1 
    53     21     50 1 
    54     22     51 1 
    55     23     52 1 
    56     24     53 1 
    57     25     54 1 
    58     26     55 1 
    59     26     56 1 
    60     27     57 1 
    61     27     58 1 
@<TRIPOS>SUBSTRUCTURE
     1 MOL1         1 MOLECULE          1 A
