# Molecule written by the XED library from Cresset
@<TRIPOS>MOLECULE
CHEMBL318363
    41     44      1
SMALL
USER_CHARGES
@<TRIPOS>ATOM
      1 N           -7.3483    1.3301   -0.0139 N.am      1 MOL1       -0.4213
      2 C           -6.5295    0.2493   -0.0232 C.2       1 MOL1        0.1506
      3 N           -6.9935   -0.9705   -0.0090 N.2       1 MOL1       -0.5896
      4 C           -5.0505    0.4133   -0.0453 C.ar      1 MOL1       -0.0185
      5 C           -4.4283    1.6735   -0.1123 C.ar      1 MOL1       -0.0677
      6 C           -3.0668    1.8062   -0.1266 C.ar      1 MOL1       -0.0773
      7 C           -2.3050    0.6507   -0.0718 C.ar      1 MOL1        0.0747
      8 O           -0.9737    0.5799   -0.0688 O.3       1 MOL1       -0.1053
      9 C           -0.6701   -0.7368    0.0115 C.ar      1 MOL1        0.0688
     10 C           -1.7854   -1.4805    0.0448 C.ar      1 MOL1       -0.1077
     11 C           -2.8928   -0.5899   -0.0067 C.ar      1 MOL1       -0.0194
     12 C           -4.2734   -0.7256    0.0051 C.ar      1 MOL1       -0.0548
     13 C            0.7061   -1.1941    0.0639 C.ar      1 MOL1        0.0001
     14 C            1.0012   -2.5396    0.2032 C.ar      1 MOL1       -0.0757
     15 C            2.3058   -2.9620    0.2637 C.ar      1 MOL1       -0.1040
     16 C            3.3296   -2.0482    0.1923 C.ar      1 MOL1       -0.0782
     17 C            3.0809   -0.6907    0.0559 C.ar      1 MOL1       -0.0151
     18 C            1.7495   -0.2760   -0.0205 C.ar      1 MOL1        0.0845
     19 O            1.4435    1.0395   -0.1949 O.3       1 MOL1       -0.3770
     20 C            4.2240    0.2189    0.0174 C.ar      1 MOL1       -0.0180
     21 C            5.4343   -0.1749   -0.5368 C.ar      1 MOL1       -0.0849
     22 C            6.5134    0.6758   -0.5663 C.ar      1 MOL1       -0.0897
     23 C            6.4089    1.9423   -0.0388 C.ar      1 MOL1       -0.0938
     24 C            5.2203    2.3519    0.5196 C.ar      1 MOL1       -0.0897
     25 C            4.1434    1.4989    0.5466 C.ar      1 MOL1       -0.0849
     26  H          -8.2220    1.2263   -0.0035 H         1 MOL1        0.2753
     27  H          -7.0171    2.1436   -0.0163 H         1 MOL1        0.2753
     28  H          -7.9931   -0.9968    0.0071 H         1 MOL1        0.2200
     29  H          -4.9891    2.4988   -0.1504 H         1 MOL1        0.0910
     30  H          -2.6359    2.7073   -0.1733 H         1 MOL1        0.0924
     31  H          -1.8336   -2.4772    0.1031 H         1 MOL1        0.0928
     32  H          -4.6967   -1.6304    0.0531 H         1 MOL1        0.0914
     33  H           0.2621   -3.2096    0.2624 H         1 MOL1        0.0910
     34  H           2.5114   -3.9355    0.3647 H         1 MOL1        0.0906
     35  H           4.2730   -2.3726    0.2493 H         1 MOL1        0.0910
     36  H           2.2001    1.5417   -0.6257 H         1 MOL1        0.3295
     37  H           5.5256   -1.0904   -0.9269 H         1 MOL1        0.0910
     38  H           7.3761    0.3737   -0.9719 H         1 MOL1        0.0906
     39  H           7.1936    2.5620   -0.0613 H         1 MOL1        0.0906
     40  H           5.1401    3.2710    0.9058 H         1 MOL1        0.0906
     41  H           3.2856    1.8071    0.9580 H         1 MOL1        0.0910
@<TRIPOS>BOND
     1      1      2 am
     2      2      3 2 
     3      2      4 1 
     4      4      5 ar
     5      5      6 ar
     6      6      7 ar
     7      7      8 ar
     8      8      9 ar
     9      9     10 ar
    10      9     13 1 
    11     10     11 ar
    12     11      7 ar
    13     11     12 ar
    14     12      4 ar
    15     13     14 ar
    16     14     15 ar
    17     15     16 ar
    18     16     17 ar
    19     17     18 ar
    20     17     20 1 
    21     18     13 ar
    22     18     19 1 
    23     20     21 ar
    24     21     22 ar
    25     22     23 ar
    26     23     24 ar
    27     24     25 ar
    28     25     20 ar
    29      1     26 1 
    30      1     27 1 
    31      3     28 1 
    32      5     29 1 
    33      6     30 1 
    34     10     31 1 
    35     12     32 1 
    36     14     33 1 
    37     15     34 1 
    38     16     35 1 
    39     19     36 1 
    40     21     37 1 
    41     22     38 1 
    42     23     39 1 
    43     24     40 1 
    44     25     41 1 
@<TRIPOS>SUBSTRUCTURE
     1 MOL1         1 MOLECULE          1 A
