# Molecule written by the XED library from Cresset
@<TRIPOS>MOLECULE
CHEMBL294067
    51     54      1
SMALL
USER_CHARGES
@<TRIPOS>ATOM
      1 C            7.9341   -1.8720   -0.0769 C.3       1 MOL1       -0.1200
      2 C            6.3992   -1.8884   -0.1599 C.3       1 MOL1       -0.0643
      3 C            5.8521   -3.1938    0.4642 C.3       1 MOL1       -0.0882
      4 C            4.3910   -3.0608    0.9563 C.3       1 MOL1       -0.0875
      5 C            3.6480   -1.9610    0.1779 C.3       1 MOL1       -0.0635
      6 C            4.2792   -0.5689    0.4338 C.3       1 MOL1       -0.0096
      7 C            5.8243   -0.6494    0.5543 C.3       1 MOL1       -0.0601
      8 O            3.8987    0.3832   -0.5890 O.3       1 MOL1       -0.1955
      9 C            2.9152    1.2466   -0.2946 C.ar      1 MOL1        0.0699
     10 C            3.2254    2.5402    0.0646 C.ar      1 MOL1       -0.0684
     11 C            2.2211    3.4338    0.3743 C.ar      1 MOL1       -0.1008
     12 C            0.9086    3.0398    0.3265 C.ar      1 MOL1       -0.0765
     13 C            0.5678    1.7414   -0.0351 C.ar      1 MOL1        0.0056
     14 C            1.5859    0.8500   -0.3593 C.ar      1 MOL1        0.0890
     15 O            1.3012   -0.4255   -0.7456 O.3       1 MOL1       -0.3757
     16 C           -0.8133    1.3136   -0.0530 C.ar      1 MOL1        0.2149
     17 N           -1.2238    0.0638   -0.2748 N.ar      1 MOL1       -0.4002
     18 C           -2.5926    0.0270   -0.1589 C.ar      1 MOL1        0.0180
     19 C           -3.5365   -0.9910   -0.2519 C.ar      1 MOL1       -0.0467
     20 C           -4.8643   -0.6803   -0.0360 C.ar      1 MOL1       -0.0007
     21 C           -5.8620   -1.7932   -0.1039 C.2       1 MOL1        0.1496
     22 N           -7.0895   -1.5900   -0.5029 N.2       1 MOL1       -0.5970
     23 N           -5.4723   -3.0421    0.2453 N.am      1 MOL1       -0.4229
     24 C           -5.2169    0.6633    0.2589 C.ar      1 MOL1        0.1292
     25 F           -6.4912    1.0041    0.4934 F         1 MOL1       -0.1424
     26 C           -4.2854    1.6652    0.3381 C.ar      1 MOL1       -0.0725
     27 C           -2.9650    1.3076    0.1266 C.ar      1 MOL1        0.0863
     28 N           -1.8589    2.1310    0.1879 N.pl3     1 MOL1       -0.1593
     29 H            6.0688   -1.8388   -1.3118 H         1 MOL1        0.0485
     30 H            3.8713   -0.1785    1.4953 H         1 MOL1        0.0667
     31 H           -1.8429    2.9942    0.3590 H         1 MOL1        0.2049
     32  H           8.3595   -0.8899   -0.6199 H         1 MOL1        0.0435
     33  H           8.2785   -1.8638    1.0730 H         1 MOL1        0.0435
     34  H           8.3777   -2.8535   -0.6092 H         1 MOL1        0.0435
     35  H           5.9282   -4.0665   -0.3603 H         1 MOL1        0.0463
     36  H           6.5368   -3.5077    1.3970 H         1 MOL1        0.0463
     37  H           3.8154   -4.1061    0.8228 H         1 MOL1        0.0460
     38  H           4.3737   -2.7582    2.1173 H         1 MOL1        0.0460
     39  H           2.5025   -1.9445    0.5345 H         1 MOL1        0.0482
     40  H           3.7017   -2.2352   -0.9903 H         1 MOL1        0.0482
     41  H           6.3390    0.3448    0.1164 H         1 MOL1        0.0484
     42  H           6.1209   -0.7482    1.7137 H         1 MOL1        0.0484
     43  H           4.1810    2.8322    0.1052 H         1 MOL1        0.0924
     44  H           2.4508    4.3708    0.6373 H         1 MOL1        0.0906
     45  H           0.1919    3.6951    0.5621 H         1 MOL1        0.0910
     46  H           0.3164   -0.5649   -0.8858 H         1 MOL1        0.3295
     47  H          -3.2537   -1.9257   -0.4629 H         1 MOL1        0.0923
     48  H          -7.2593   -0.6516   -0.7915 H         1 MOL1        0.2200
     49  H          -4.6597   -3.1955    0.5460 H         1 MOL1        0.2753
     50  H          -6.0401   -3.7111    0.1734 H         1 MOL1        0.2753
     51  H          -4.5456    2.6073    0.5483 H         1 MOL1        0.0944
@<TRIPOS>BOND
     1      1      2 1 
     2      2      3 1 
     3      3      4 1 
     4      4      5 1 
     5      5      6 1 
     6      6      7 1 
     7      6      8 1 
     8      7      2 1 
     9      8      9 1 
    10      9     10 ar
    11     10     11 ar
    12     11     12 ar
    13     12     13 ar
    14     13     14 ar
    15     13     16 1 
    16     14      9 ar
    17     14     15 1 
    18     16     17 ar
    19     17     18 ar
    20     18     19 ar
    21     19     20 ar
    22     20     21 1 
    23     20     24 ar
    24     21     22 2 
    25     21     23 am
    26     24     25 1 
    27     24     26 ar
    28     26     27 ar
    29     27     18 ar
    30     27     28 ar
    31     28     16 ar
    32      1     32 1 
    33      1     33 1 
    34      1     34 1 
    35      2     29 1 
    36      3     35 1 
    37      3     36 1 
    38      4     37 1 
    39      4     38 1 
    40      5     39 1 
    41      5     40 1 
    42      6     30 1 
    43      7     41 1 
    44      7     42 1 
    45     10     43 1 
    46     11     44 1 
    47     12     45 1 
    48     15     46 1 
    49     19     47 1 
    50     22     48 1 
    51     23     49 1 
    52     23     50 1 
    53     26     51 1 
    54     28     31 1 
@<TRIPOS>SUBSTRUCTURE
     1 MOL1         1 MOLECULE          1 A
