# Molecule written by the XED library from Cresset
@<TRIPOS>MOLECULE
CHEMBL416674
    48     51      1
SMALL
USER_CHARGES
@<TRIPOS>ATOM
      1 C            6.4121    1.3501    0.7983 C.3       1 MOL1       -0.1160
      2 C            6.0810    0.0764   -0.0110 C.3       1 MOL1       -0.0429
      3 C            7.2884   -0.8800   -0.0323 C.3       1 MOL1       -0.0843
      4 C            6.6600   -2.2699   -0.1641 C.3       1 MOL1       -0.0874
      5 C            5.4419   -2.1633    0.7634 C.3       1 MOL1       -0.0631
      6 C            4.8900   -0.7345    0.5693 C.3       1 MOL1       -0.0053
      7 O            3.7171   -0.7837   -0.2881 O.3       1 MOL1       -0.1951
      8 C            2.8455    0.2419   -0.2685 C.ar      1 MOL1        0.0699
      9 C            3.2671    1.5513   -0.3642 C.ar      1 MOL1       -0.0684
     10 C            2.3588    2.5862   -0.3326 C.ar      1 MOL1       -0.1008
     11 C            1.0207    2.3176   -0.2251 C.ar      1 MOL1       -0.0765
     12 C            0.5534    1.0098   -0.1515 C.ar      1 MOL1        0.0056
     13 C            1.4860   -0.0257   -0.1702 C.ar      1 MOL1        0.0890
     14 O            1.0883   -1.3268   -0.0921 O.3       1 MOL1       -0.3757
     15 C           -0.8717    0.7580   -0.0689 C.ar      1 MOL1        0.2149
     16 N           -1.4477   -0.4451   -0.0050 N.ar      1 MOL1       -0.4002
     17 C           -2.8133   -0.2777    0.0295 C.ar      1 MOL1        0.0180
     18 C           -3.8945   -1.1528    0.0809 C.ar      1 MOL1       -0.0467
     19 C           -5.1820   -0.6454    0.0592 C.ar      1 MOL1       -0.0007
     20 C           -6.3262   -1.6207    0.0781 C.2       1 MOL1        0.1496
     21 N           -7.5516   -1.2686    0.3680 N.2       1 MOL1       -0.5970
     22 N           -6.0929   -2.9229   -0.2109 N.am      1 MOL1       -0.4229
     23 C           -5.3398    0.7680   -0.0008 C.ar      1 MOL1        0.1292
     24 F           -6.5484    1.3396   -0.0474 F         1 MOL1       -0.1424
     25 C           -4.2758    1.6306   -0.0287 C.ar      1 MOL1       -0.0725
     26 C           -3.0123    1.0683   -0.0157 C.ar      1 MOL1        0.0863
     27 N           -1.8062    1.7339   -0.0696 N.pl3     1 MOL1       -0.1593
     28 H            5.8404    0.3641   -1.1496 H         1 MOL1        0.0506
     29 H            4.5637   -0.3247    1.6516 H         1 MOL1        0.0669
     30 H           -1.6827    2.6041   -0.1010 H         1 MOL1        0.2049
     31  H           7.1341    1.1075    1.7261 H         1 MOL1        0.0435
     32  H           6.9589    2.1334    0.0734 H         1 MOL1        0.0435
     33  H           5.4219    1.8618    1.2458 H         1 MOL1        0.0435
     34  H           8.0428   -0.6328   -0.9307 H         1 MOL1        0.0463
     35  H           7.8755   -0.8597    1.0111 H         1 MOL1        0.0463
     36  H           7.4175   -3.1348    0.1801 H         1 MOL1        0.0460
     37  H           6.3008   -2.4383   -1.2965 H         1 MOL1        0.0460
     38  H           5.8385   -2.2908    1.8887 H         1 MOL1        0.0482
     39  H           4.6390   -3.0226    0.5231 H         1 MOL1        0.0482
     40  H           4.2396    1.7531   -0.4582 H         1 MOL1        0.0924
     41  H           2.6747    3.5331   -0.3922 H         1 MOL1        0.0906
     42  H           0.3737    3.0778   -0.2053 H         1 MOL1        0.0910
     43  H           0.0863   -1.4066   -0.0329 H         1 MOL1        0.3295
     44  H          -3.7301   -2.1362    0.1261 H         1 MOL1        0.0923
     45  H          -7.6501   -0.3142    0.6217 H         1 MOL1        0.2200
     46  H          -5.2964   -3.2066   -0.4463 H         1 MOL1        0.2753
     47  H          -6.7568   -3.4990   -0.1625 H         1 MOL1        0.2753
     48  H          -4.4064    2.6212   -0.0686 H         1 MOL1        0.0944
@<TRIPOS>BOND
     1      1      2 1 
     2      2      3 1 
     3      3      4 1 
     4      4      5 1 
     5      5      6 1 
     6      6      2 1 
     7      6      7 1 
     8      7      8 1 
     9      8      9 ar
    10      9     10 ar
    11     10     11 ar
    12     11     12 ar
    13     12     13 ar
    14     12     15 1 
    15     13      8 ar
    16     13     14 1 
    17     15     16 ar
    18     16     17 ar
    19     17     18 ar
    20     18     19 ar
    21     19     20 1 
    22     19     23 ar
    23     20     21 2 
    24     20     22 am
    25     23     24 1 
    26     23     25 ar
    27     25     26 ar
    28     26     17 ar
    29     26     27 ar
    30     27     15 ar
    31      1     31 1 
    32      1     32 1 
    33      1     33 1 
    34      2     28 1 
    35      3     34 1 
    36      3     35 1 
    37      4     36 1 
    38      4     37 1 
    39      5     38 1 
    40      5     39 1 
    41      6     29 1 
    42      9     40 1 
    43     10     41 1 
    44     11     42 1 
    45     14     43 1 
    46     18     44 1 
    47     21     45 1 
    48     22     46 1 
    49     22     47 1 
    50     25     48 1 
    51     27     30 1 
@<TRIPOS>SUBSTRUCTURE
     1 MOL1         1 MOLECULE          1 A
