# Molecule written by the XED library from Cresset
@<TRIPOS>MOLECULE
CHEMBL480133
    53     57      1
SMALL
USER_CHARGES
@<TRIPOS>ATOM
      1 N           -6.4690    3.0661   -0.5149 N.am      1 MOL1       -0.4206
      2 C           -6.3727    1.7438   -0.2334 C.2       1 MOL1        0.1549
      3 N           -7.4139    0.9585   -0.2207 N.2       1 MOL1       -0.5838
      4 C           -5.0489    1.1364    0.0774 C.ar      1 MOL1       -0.0078
      5 C           -3.8506    1.7493   -0.2568 C.ar      1 MOL1       -0.0574
      6 C           -2.6484    1.1510    0.0367 C.ar      1 MOL1       -0.0826
      7 C           -2.6024   -0.0742    0.6693 C.ar      1 MOL1       -0.0298
      8 C           -3.7930   -0.6803    1.0153 C.ar      1 MOL1       -0.0826
      9 C           -4.9983   -0.0898    0.7190 C.ar      1 MOL1       -0.0574
     10 C           -1.2571   -0.7281    1.0058 C.3       1 MOL1        0.0359
     11 C           -0.0392   -0.3817    0.1321 C.3       1 MOL1        0.0415
     12 C            1.0282   -1.2340    0.7967 C.3       1 MOL1        0.0377
     13 C            0.3162   -2.5881    0.9136 C.3       1 MOL1       -0.0060
     14 C            0.4659   -3.5037   -0.3132 C.3       1 MOL1       -0.0702
     15 C           -0.9562   -4.0255   -0.5442 C.3       1 MOL1       -0.0744
     16 C           -1.8478   -2.8566   -0.1016 C.3       1 MOL1       -0.0456
     17 N           -1.1175   -2.2184    1.0145 N.3       1 MOL1       -0.2407
     18 C            2.2071   -0.8161   -0.0412 C.2       1 MOL1        0.3086
     19 O            3.1577   -1.5064   -0.3688 O.2       1 MOL1       -0.4103
     20 N            2.0158    0.4893   -0.3281 N.am      1 MOL1       -0.2003
     21 C            2.9923    1.3601   -1.0091 C.3       1 MOL1        0.1205
     22 C            4.4233    1.2754   -0.4978 C.ar      1 MOL1       -0.0422
     23 C            5.3152    0.4033   -1.0836 C.ar      1 MOL1       -0.0840
     24 C            6.6135    0.3276   -0.6329 C.ar      1 MOL1       -0.0900
     25 C            7.0274    1.1289    0.4062 C.ar      1 MOL1       -0.0906
     26 C            6.1422    2.0047    0.9921 C.ar      1 MOL1       -0.0900
     27 C            4.8434    2.0769    0.5410 C.ar      1 MOL1       -0.0840
     28 C            0.7621    0.8816   -0.0226 C.2       1 MOL1        0.3095
     29 O            0.3613    2.0306    0.0583 O.2       1 MOL1       -0.4103
     30 H           -1.0161   -0.3524    2.1208 H         1 MOL1        0.0627
     31  H          -7.2427    3.4200   -0.7410 H         1 MOL1        0.2753
     32  H          -5.7605    3.5841   -0.4672 H         1 MOL1        0.2753
     33  H          -8.2588    1.4455   -0.4432 H         1 MOL1        0.2200
     34  H          -3.8556    2.6349   -0.7201 H         1 MOL1        0.0910
     35  H          -1.7958    1.6091   -0.2146 H         1 MOL1        0.0908
     36  H          -3.7792   -1.5639    1.4844 H         1 MOL1        0.0908
     37  H          -5.8494   -0.5506    0.9714 H         1 MOL1        0.0910
     38  H          -0.2285   -0.7760   -0.9836 H         1 MOL1        0.0573
     39  H           1.2376   -0.8205    1.9051 H         1 MOL1        0.0571
     40  H           0.6601   -3.1719    1.9048 H         1 MOL1        0.0598
     41  H           1.2255   -4.4076   -0.0987 H         1 MOL1        0.0474
     42  H           0.8245   -2.8848   -1.2757 H         1 MOL1        0.0474
     43  H          -1.1395   -4.3135   -1.6950 H         1 MOL1        0.0471
     44  H          -1.1549   -4.9736    0.1650 H         1 MOL1        0.0471
     45  H          -2.9254   -3.2455    0.2561 H         1 MOL1        0.0568
     46  H          -1.9856   -2.1273   -1.0437 H         1 MOL1        0.0568
     47  H           2.6108    2.4930   -0.8978 H         1 MOL1        0.0624
     48  H           2.9773    1.0863   -2.1781 H         1 MOL1        0.0624
     49  H           5.0169   -0.1782   -1.8406 H         1 MOL1        0.0908
     50  H           7.2558   -0.3090   -1.0602 H         1 MOL1        0.0906
     51  H           7.9704    1.0746    0.7350 H         1 MOL1        0.0906
     52  H           6.4426    2.5888    1.7463 H         1 MOL1        0.0906
     53  H           4.2031    2.7158    0.9674 H         1 MOL1        0.0908
@<TRIPOS>BOND
     1      1      2 am
     2      2      3 2 
     3      2      4 1 
     4      4      5 ar
     5      5      6 ar
     6      6      7 ar
     7      7      8 ar
     8      7     10 1 
     9      8      9 ar
    10      9      4 ar
    11     10     11 1 
    12     11     12 1 
    13     12     13 1 
    14     12     18 1 
    15     13     14 1 
    16     14     15 1 
    17     15     16 1 
    18     16     17 1 
    19     17     10 1 
    20     17     13 1 
    21     18     19 2 
    22     18     20 am
    23     20     21 1 
    24     20     28 am
    25     21     22 1 
    26     22     23 ar
    27     23     24 ar
    28     24     25 ar
    29     25     26 ar
    30     26     27 ar
    31     27     22 ar
    32     28     11 1 
    33     28     29 2 
    34      1     31 1 
    35      1     32 1 
    36      3     33 1 
    37      5     34 1 
    38      6     35 1 
    39      8     36 1 
    40      9     37 1 
    41     10     30 1 
    42     11     38 1 
    43     12     39 1 
    44     13     40 1 
    45     14     41 1 
    46     14     42 1 
    47     15     43 1 
    48     15     44 1 
    49     16     45 1 
    50     16     46 1 
    51     21     47 1 
    52     21     48 1 
    53     23     49 1 
    54     24     50 1 
    55     25     51 1 
    56     26     52 1 
    57     27     53 1 
@<TRIPOS>SUBSTRUCTURE
     1 MOL1         1 MOLECULE          1 A
