# Molecule written by the XED library from Cresset
@<TRIPOS>MOLECULE
CHEMBL3632869
    53     57      1
SMALL
USER_CHARGES
@<TRIPOS>ATOM
      1 N           -6.4039    3.0676   -0.4330 N.am      1 MOL1       -0.4206
      2 C           -6.3309    1.7266   -0.2498 C.2       1 MOL1        0.1549
      3 N           -7.3869    0.9625   -0.2856 N.2       1 MOL1       -0.5838
      4 C           -5.0207    1.0691    0.0116 C.ar      1 MOL1       -0.0078
      5 C           -3.8097    1.7133   -0.1801 C.ar      1 MOL1       -0.0574
      6 C           -2.6248    1.0664    0.0708 C.ar      1 MOL1       -0.0826
      7 C           -2.5911   -0.2417    0.5118 C.ar      1 MOL1       -0.0298
      8 C           -3.8000   -0.8766    0.7150 C.ar      1 MOL1       -0.0826
      9 C           -4.9925   -0.2394    0.4639 C.ar      1 MOL1       -0.0574
     10 C           -1.2316   -0.9020    0.8028 C.3       1 MOL1        0.0359
     11 C           -0.0370   -0.2379    0.0817 C.3       1 MOL1        0.0415
     12 C            1.0139   -1.3335   -0.0707 C.3       1 MOL1        0.0377
     13 C            0.0549   -2.3515   -0.6814 C.3       1 MOL1       -0.0060
     14 C            0.3196   -3.8558   -0.5836 C.3       1 MOL1       -0.0702
     15 C           -1.0925   -4.4207   -0.2849 C.3       1 MOL1       -0.0744
     16 C           -1.9421   -3.2377    0.2411 C.3       1 MOL1       -0.0456
     17 N           -0.8427   -2.3051    0.4753 N.3       1 MOL1       -0.2407
     18 C            2.0925   -0.4915   -0.7069 C.2       1 MOL1        0.3086
     19 O            2.9297   -0.8557   -1.5159 O.2       1 MOL1       -0.4103
     20 N            1.9894    0.7423   -0.1689 N.am      1 MOL1       -0.2003
     21 C            2.9723    1.8217   -0.3615 C.3       1 MOL1        0.1205
     22 C            4.4237    1.4710   -0.0659 C.ar      1 MOL1       -0.0422
     23 C            4.7889    0.4102    0.7350 C.ar      1 MOL1       -0.0840
     24 C            6.1176    0.1438    0.9748 C.ar      1 MOL1       -0.0900
     25 C            7.0908    0.9409    0.4178 C.ar      1 MOL1       -0.0906
     26 C            6.7330    2.0039   -0.3784 C.ar      1 MOL1       -0.0900
     27 C            5.4036    2.2664   -0.6177 C.ar      1 MOL1       -0.0840
     28 C            0.8354    0.9075    0.5026 C.2       1 MOL1        0.3095
     29 O            0.5546    1.8277    1.2519 O.2       1 MOL1       -0.4103
     30 H           -1.0550   -0.7852    1.9840 H         1 MOL1        0.0627
     31 H           -0.3894    0.0742   -1.0238 H         1 MOL1        0.0573
     32 H            1.3825   -1.7001    1.0115 H         1 MOL1        0.0571
     33  H          -7.1751    3.4513   -0.6127 H         1 MOL1        0.2753
     34  H          -5.6836    3.5676   -0.3703 H         1 MOL1        0.2753
     35  H          -8.2238    1.4796   -0.4653 H         1 MOL1        0.2200
     36  H          -3.7916    2.6580   -0.5042 H         1 MOL1        0.0910
     37  H          -1.7654    1.5577   -0.0673 H         1 MOL1        0.0908
     38  H          -3.8117   -1.8171    1.0491 H         1 MOL1        0.0908
     39  H          -5.8524   -0.7274    0.6131 H         1 MOL1        0.0910
     40  H          -0.4859   -2.0459   -1.7094 H         1 MOL1        0.0598
     41  H           1.0567   -4.0644    0.3405 H         1 MOL1        0.0474
     42  H           0.7753   -4.3002   -1.6012 H         1 MOL1        0.0474
     43  H          -1.0226   -5.2879    0.5427 H         1 MOL1        0.0471
     44  H          -1.5778   -4.8644   -1.2892 H         1 MOL1        0.0471
     45  H          -2.5243   -3.5256    1.2503 H         1 MOL1        0.0568
     46  H          -2.6763   -2.8331   -0.6181 H         1 MOL1        0.0568
     47  H           2.6613    2.7342    0.3532 H         1 MOL1        0.0624
     48  H           2.8815    2.1918   -1.4999 H         1 MOL1        0.0624
     49  H           4.0838   -0.1698    1.1427 H         1 MOL1        0.0908
     50  H           6.3758   -0.6288    1.5546 H         1 MOL1        0.0906
     51  H           8.0563    0.7486    0.5928 H         1 MOL1        0.0906
     52  H           7.4387    2.5855   -0.7832 H         1 MOL1        0.0906
     53  H           5.1473    3.0406   -1.1964 H         1 MOL1        0.0908
@<TRIPOS>BOND
     1      1      2 am
     2      2      3 2 
     3      2      4 1 
     4      4      5 ar
     5      5      6 ar
     6      6      7 ar
     7      7      8 ar
     8      7     10 1 
     9      8      9 ar
    10      9      4 ar
    11     10     11 1 
    12     11     12 1 
    13     12     13 1 
    14     12     18 1 
    15     13     14 1 
    16     14     15 1 
    17     15     16 1 
    18     16     17 1 
    19     17     10 1 
    20     17     13 1 
    21     18     19 2 
    22     18     20 am
    23     20     21 1 
    24     20     28 am
    25     21     22 1 
    26     22     23 ar
    27     23     24 ar
    28     24     25 ar
    29     25     26 ar
    30     26     27 ar
    31     27     22 ar
    32     28     11 1 
    33     28     29 2 
    34      1     33 1 
    35      1     34 1 
    36      3     35 1 
    37      5     36 1 
    38      6     37 1 
    39      8     38 1 
    40      9     39 1 
    41     10     30 1 
    42     11     31 1 
    43     12     32 1 
    44     13     40 1 
    45     14     41 1 
    46     14     42 1 
    47     15     43 1 
    48     15     44 1 
    49     16     45 1 
    50     16     46 1 
    51     21     47 1 
    52     21     48 1 
    53     23     49 1 
    54     24     50 1 
    55     25     51 1 
    56     26     52 1 
    57     27     53 1 
@<TRIPOS>SUBSTRUCTURE
     1 MOL1         1 MOLECULE          1 A
