# Molecule written by the XED library from Cresset
@<TRIPOS>MOLECULE
CHEMBL62807
    51     54      1
SMALL
USER_CHARGES
@<TRIPOS>ATOM
      1 C            6.8479   -0.0353    0.1295 C.3       1 MOL1       -0.1160
      2 C            5.8803   -1.1995   -0.1411 C.3       1 MOL1       -0.0429
      3 C            6.3703   -2.3961    0.7046 C.3       1 MOL1       -0.0844
      4 C            5.4223   -3.5987    0.5412 C.3       1 MOL1       -0.0915
      5 C            4.0148   -3.1984    1.0175 C.3       1 MOL1       -0.0879
      6 C            3.4874   -2.0298    0.1580 C.3       1 MOL1       -0.0631
      7 C            4.4199   -0.7881    0.1940 C.3       1 MOL1       -0.0055
      8 O            3.9696    0.2321   -0.7379 O.3       1 MOL1       -0.1951
      9 C            3.0130    1.0867   -0.3431 C.ar      1 MOL1        0.0699
     10 C            3.3673    2.3370    0.1139 C.ar      1 MOL1       -0.0684
     11 C            2.3954    3.2397    0.4975 C.ar      1 MOL1       -0.1008
     12 C            1.0705    2.8911    0.4352 C.ar      1 MOL1       -0.0765
     13 C            0.6773    1.6384   -0.0261 C.ar      1 MOL1        0.0056
     14 C            1.6692    0.7488   -0.4337 C.ar      1 MOL1        0.0890
     15 O            1.3393   -0.4663   -0.9506 O.3       1 MOL1       -0.3757
     16 C           -0.7198    1.2572   -0.0526 C.ar      1 MOL1        0.2149
     17 N           -1.1790    0.0273   -0.2920 N.ar      1 MOL1       -0.4002
     18 C           -2.5475    0.0387   -0.1674 C.ar      1 MOL1        0.0180
     19 C           -3.5302   -0.9416   -0.2629 C.ar      1 MOL1       -0.0467
     20 C           -4.8411   -0.5783   -0.0286 C.ar      1 MOL1       -0.0007
     21 C           -5.8800   -1.6469   -0.0922 C.2       1 MOL1        0.1496
     22 N           -7.0952   -1.4176   -0.5154 N.2       1 MOL1       -0.5970
     23 N           -5.5429   -2.8967    0.2984 N.am      1 MOL1       -0.4229
     24 C           -5.1485    0.7707    0.2853 C.ar      1 MOL1        0.1292
     25 F           -6.4136    1.1338    0.5281 F         1 MOL1       -0.1424
     26 C           -4.1794    1.7368    0.3692 C.ar      1 MOL1       -0.0725
     27 C           -2.8745    1.3273    0.1427 C.ar      1 MOL1        0.0863
     28 N           -1.7371    2.1057    0.2129 N.pl3     1 MOL1       -0.1593
     29 H            5.9352   -1.4951   -1.3032 H         1 MOL1        0.0506
     30 H            4.4286   -0.3431    1.3113 H         1 MOL1        0.0669
     31 H           -1.6893    2.9657    0.3964 H         1 MOL1        0.2049
     32  H           7.9718   -0.3802   -0.1041 H         1 MOL1        0.0435
     33  H           6.7664    0.2819    1.2835 H         1 MOL1        0.0435
     34  H           6.5776    0.9037   -0.5635 H         1 MOL1        0.0435
     35  H           6.4078   -2.0782    1.8611 H         1 MOL1        0.0463
     36  H           7.4805   -2.7062    0.3661 H         1 MOL1        0.0463
     37  H           5.8301   -4.5267    1.1844 H         1 MOL1        0.0460
     38  H           5.3783   -3.9202   -0.6138 H         1 MOL1        0.0460
     39  H           4.0731   -2.8697    2.1703 H         1 MOL1        0.0460
     40  H           3.2700   -4.1350    0.9094 H         1 MOL1        0.0460
     41  H           3.3550   -2.4155   -0.9699 H         1 MOL1        0.0482
     42  H           2.4045   -1.7121    0.5615 H         1 MOL1        0.0482
     43  H           4.3316    2.5938    0.1585 H         1 MOL1        0.0924
     44  H           2.6550    4.1492    0.8278 H         1 MOL1        0.0906
     45  H           0.3807    3.5493    0.7324 H         1 MOL1        0.0910
     46  H           0.3529   -0.5388   -1.1183 H         1 MOL1        0.3295
     47  H          -3.2892   -1.8871   -0.4835 H         1 MOL1        0.0923
     48  H          -7.2410   -0.4765   -0.8140 H         1 MOL1        0.2200
     49  H          -4.7513   -3.0701    0.6473 H         1 MOL1        0.2753
     50  H          -6.1287   -3.5438    0.2111 H         1 MOL1        0.2753
     51  H          -4.4008    2.6867    0.5925 H         1 MOL1        0.0944
@<TRIPOS>BOND
     1      1      2 1 
     2      2      3 1 
     3      3      4 1 
     4      4      5 1 
     5      5      6 1 
     6      6      7 1 
     7      7      2 1 
     8      7      8 1 
     9      8      9 1 
    10      9     10 ar
    11     10     11 ar
    12     11     12 ar
    13     12     13 ar
    14     13     14 ar
    15     13     16 1 
    16     14      9 ar
    17     14     15 1 
    18     16     17 ar
    19     17     18 ar
    20     18     19 ar
    21     19     20 ar
    22     20     21 1 
    23     20     24 ar
    24     21     22 2 
    25     21     23 am
    26     24     25 1 
    27     24     26 ar
    28     26     27 ar
    29     27     18 ar
    30     27     28 ar
    31     28     16 ar
    32      1     32 1 
    33      1     33 1 
    34      1     34 1 
    35      2     29 1 
    36      3     35 1 
    37      3     36 1 
    38      4     37 1 
    39      4     38 1 
    40      5     39 1 
    41      5     40 1 
    42      6     41 1 
    43      6     42 1 
    44      7     30 1 
    45     10     43 1 
    46     11     44 1 
    47     12     45 1 
    48     15     46 1 
    49     19     47 1 
    50     22     48 1 
    51     23     49 1 
    52     23     50 1 
    53     26     51 1 
    54     28     31 1 
@<TRIPOS>SUBSTRUCTURE
     1 MOL1         1 MOLECULE          1 A
