# Molecule written by the XED library from Cresset
@<TRIPOS>MOLECULE
CHEMBL598417
    49     51      1
SMALL
USER_CHARGES
@<TRIPOS>ATOM
      1 Cl          -3.7287   -1.4047   -0.0345 Cl        1 MOL1       -0.1082
      2 C           -3.4404    0.3077   -0.1293 C.ar      1 MOL1        0.0434
      3 C           -4.4527    1.1931    0.1656 C.ar      1 MOL1       -0.0642
      4 C           -4.2218    2.5470    0.0917 C.ar      1 MOL1       -0.0836
      5 C           -2.9800    3.0144   -0.2746 C.ar      1 MOL1       -0.0898
      6 C           -1.9620    2.1344   -0.5703 C.ar      1 MOL1       -0.0376
      7 C           -0.6096    2.6895   -0.9899 C.3       1 MOL1        0.1148
      8 N            0.5369    1.8767   -0.5534 N.am      1 MOL1       -0.3832
      9 C            1.4359    2.3896    0.3029 C.2       1 MOL1        0.3241
     10 O            1.3463    3.4790    0.8517 O.2       1 MOL1       -0.4176
     11 C            2.6302    1.4863    0.5312 C.3       1 MOL1        0.1603
     12 C            3.8072    2.0146   -0.3032 C.3       1 MOL1       -0.0562
     13 C            4.6626    0.7806   -0.5980 C.3       1 MOL1       -0.0686
     14 C            3.6422   -0.3474   -0.7941 C.3       1 MOL1        0.0725
     15 N            2.5482    0.0780    0.1005 N.am      1 MOL1       -0.3910
     16 C            1.5557   -0.7317    0.5262 C.2       1 MOL1        0.2850
     17 O            0.6260   -0.3625    1.2306 O.2       1 MOL1       -0.4204
     18 C            1.6881   -2.1686    0.0567 C.3       1 MOL1       -0.0096
     19 C            0.5082   -3.0644    0.4816 C.3       1 MOL1       -0.0528
     20 C            0.7163   -4.5089    0.0085 C.3       1 MOL1       -0.0873
     21 C           -0.6945   -5.1165   -0.0017 C.3       1 MOL1       -0.0916
     22 C           -1.6701   -3.9366   -0.1887 C.3       1 MOL1       -0.0916
     23 C           -0.8177   -2.6533   -0.1720 C.3       1 MOL1       -0.0873
     24 C           -2.2003    0.7791   -0.4995 C.ar      1 MOL1       -0.0581
     25 H            2.9327    1.5087    1.6922 H         1 MOL1        0.0678
     26  H          -5.3543    0.8526    0.4326 H         1 MOL1        0.0939
     27  H          -4.9561    3.1918    0.3039 H         1 MOL1        0.0906
     28  H          -2.8165    3.9993   -0.3285 H         1 MOL1        0.0908
     29  H          -0.5876    2.7472   -2.1882 H         1 MOL1        0.0620
     30  H          -0.4834    3.8040   -0.5617 H         1 MOL1        0.0620
     31  H           0.6375    1.0619   -0.8720 H         1 MOL1        0.2040
     32  H           3.3866    2.4495   -1.3398 H         1 MOL1        0.0479
     33  H           4.4288    2.8565    0.2841 H         1 MOL1        0.0479
     34  H           5.3527    0.9324   -1.5680 H         1 MOL1        0.0474
     35  H           5.3393    0.5357    0.3622 H         1 MOL1        0.0474
     36  H           3.2550   -0.3662   -1.9298 H         1 MOL1        0.0593
     37  H           4.1538   -1.3912   -0.5009 H         1 MOL1        0.0593
     38  H           1.8056   -2.1913   -1.1374 H         1 MOL1        0.0530
     39  H           2.6609   -2.6521    0.5656 H         1 MOL1        0.0530
     40  H           0.3816   -3.0557    1.6752 H         1 MOL1        0.0490
     41  H           1.4527   -5.1132    0.7386 H         1 MOL1        0.0463
     42  H           1.1481   -4.5097   -1.1111 H         1 MOL1        0.0463
     43  H          -0.8917   -5.6465    1.0571 H         1 MOL1        0.0460
     44  H          -0.8024   -5.9256   -0.8820 H         1 MOL1        0.0460
     45  H          -2.4568   -3.9136    0.7182 H         1 MOL1        0.0460
     46  H          -2.2704   -4.0314   -1.2247 H         1 MOL1        0.0460
     47  H          -1.3495   -1.7770    0.4518 H         1 MOL1        0.0463
     48  H          -0.6080   -2.2920   -1.2973 H         1 MOL1        0.0463
     49  H          -1.4680    0.1358   -0.7188 H         1 MOL1        0.0941
@<TRIPOS>BOND
     1      1      2 1 
     2      2      3 ar
     3      3      4 ar
     4      4      5 ar
     5      5      6 ar
     6      6      7 1 
     7      6     24 ar
     8      7      8 1 
     9      8      9 am
    10      9     10 2 
    11      9     11 1 
    12     11     12 1 
    13     12     13 1 
    14     13     14 1 
    15     14     15 1 
    16     15     11 1 
    17     15     16 am
    18     16     17 2 
    19     16     18 1 
    20     18     19 1 
    21     19     20 1 
    22     20     21 1 
    23     21     22 1 
    24     22     23 1 
    25     23     19 1 
    26     24      2 ar
    27      3     26 1 
    28      4     27 1 
    29      5     28 1 
    30      7     29 1 
    31      7     30 1 
    32      8     31 1 
    33     11     25 1 
    34     12     32 1 
    35     12     33 1 
    36     13     34 1 
    37     13     35 1 
    38     14     36 1 
    39     14     37 1 
    40     18     38 1 
    41     18     39 1 
    42     19     40 1 
    43     20     41 1 
    44     20     42 1 
    45     21     43 1 
    46     21     44 1 
    47     22     45 1 
    48     22     46 1 
    49     23     47 1 
    50     23     48 1 
    51     24     49 1 
@<TRIPOS>SUBSTRUCTURE
     1 MOL1         1 MOLECULE          1 A
