# Molecule written by the XED library from Cresset
@<TRIPOS>MOLECULE
CHEMBL111660
    43     45      1
SMALL
USER_CHARGES
@<TRIPOS>ATOM
      1 C           -8.3451    1.6382    0.0033 C.3       1 MOL1       -0.1191
      2 C           -7.6400    0.2697    0.0086 C.3       1 MOL1       -0.0553
      3 C           -6.1197    0.2772    0.0033 C.ar      1 MOL1       -0.0928
      4 C           -5.3619    1.4295    0.0081 C.ar      1 MOL1       -0.0839
      5 C           -3.9889    1.3606    0.0027 C.ar      1 MOL1       -0.1029
      6 C           -3.3420    0.1365   -0.0076 C.ar      1 MOL1        0.0697
      7 N           -1.9351    0.0910   -0.0142 N.am      1 MOL1       -0.2240
      8 C           -1.1300   -1.0008   -0.0010 C.2       1 MOL1        0.3240
      9 O           -1.5548   -2.1529    0.0097 O.2       1 MOL1       -0.4094
     10 C            0.3538   -0.8651    0.0001 C.ar      1 MOL1        0.0086
     11 C            1.1313   -2.0469    0.0007 C.ar      1 MOL1       -0.0652
     12 C            2.4817   -2.0156    0.0011 C.ar      1 MOL1       -0.0757
     13 C            3.1548   -0.7819    0.0011 C.ar      1 MOL1       -0.0126
     14 C            4.5549   -0.7326    0.0011 C.ar      1 MOL1       -0.0411
     15 C            5.2330    0.4588    0.0009 C.ar      1 MOL1       -0.0044
     16 C            4.4516    1.6418    0.0010 C.ar      1 MOL1       -0.0652
     17 C            3.0990    1.6222    0.0010 C.ar      1 MOL1       -0.0773
     18 C            2.4076    0.3991    0.0010 C.ar      1 MOL1       -0.0112
     19 C            1.0057    0.3406    0.0006 C.ar      1 MOL1       -0.0453
     20 C            6.7352    0.5382    0.0006 C.2       1 MOL1        0.1553
     21 N            7.4932   -0.5267    0.0007 N.2       1 MOL1       -0.5812
     22 N            7.3368    1.7499    0.0001 N.am      1 MOL1       -0.4212
     23 C           -4.1117   -1.0161   -0.0124 C.ar      1 MOL1       -0.1029
     24 C           -5.4837   -0.9436   -0.0068 C.ar      1 MOL1       -0.0839
     25  H          -9.5336    1.4726    0.0056 H         1 MOL1        0.0435
     26  H          -8.0256    2.2572    0.9804 H         1 MOL1        0.0435
     27  H          -8.0280    2.2486   -0.9800 H         1 MOL1        0.0435
     28  H          -8.0005   -0.3287    0.9842 H         1 MOL1        0.0490
     29  H          -8.0065   -0.3387   -0.9587 H         1 MOL1        0.0490
     30  H          -5.8145    2.3212    0.0154 H         1 MOL1        0.0908
     31  H          -3.4515    2.2039    0.0061 H         1 MOL1        0.0919
     32  H          -1.5346    0.8731   -0.0292 H         1 MOL1        0.2056
     33  H           0.6672   -2.9325    0.0006 H         1 MOL1        0.0910
     34  H           3.0018   -2.8695    0.0013 H         1 MOL1        0.0910
     35  H           5.0488   -1.5973    0.0012 H         1 MOL1        0.0914
     36  H           4.9051    2.5301    0.0009 H         1 MOL1        0.0910
     37  H           2.5889    2.4823    0.0010 H         1 MOL1        0.0910
     38  H           0.4852    1.1928    0.0006 H         1 MOL1        0.0914
     39  H           6.9929   -1.3854    0.0011 H         1 MOL1        0.2200
     40  H           6.8726    2.4939    0.0000 H         1 MOL1        0.2753
     41  H           8.2156    1.7926    0.0000 H         1 MOL1        0.2753
     42  H          -3.6713   -1.9118   -0.0202 H         1 MOL1        0.0919
     43  H          -6.0250   -1.7846   -0.0103 H         1 MOL1        0.0908
@<TRIPOS>BOND
     1      1      2 1 
     2      2      3 1 
     3      3      4 ar
     4      4      5 ar
     5      5      6 ar
     6      6      7 1 
     7      6     23 ar
     8      7      8 am
     9      8      9 2 
    10      8     10 1 
    11     10     11 ar
    12     11     12 ar
    13     12     13 ar
    14     13     14 ar
    15     14     15 ar
    16     15     16 ar
    17     15     20 1 
    18     16     17 ar
    19     17     18 ar
    20     18     13 ar
    21     18     19 ar
    22     19     10 ar
    23     20     21 2 
    24     20     22 am
    25     23     24 ar
    26     24      3 ar
    27      1     25 1 
    28      1     26 1 
    29      1     27 1 
    30      2     28 1 
    31      2     29 1 
    32      4     30 1 
    33      5     31 1 
    34      7     32 1 
    35     11     33 1 
    36     12     34 1 
    37     14     35 1 
    38     16     36 1 
    39     17     37 1 
    40     19     38 1 
    41     21     39 1 
    42     22     40 1 
    43     22     41 1 
    44     23     42 1 
    45     24     43 1 
@<TRIPOS>SUBSTRUCTURE
     1 MOL1         1 MOLECULE          1 A
