# Molecule written by the XED library from Cresset
@<TRIPOS>MOLECULE
CHEMBL293892
    51     54      1
SMALL
USER_CHARGES
@<TRIPOS>ATOM
      1 C            6.8025   -0.0742   -0.2056 C.3       1 MOL1       -0.1160
      2 C            5.8297   -1.2208    0.1247 C.3       1 MOL1       -0.0429
      3 C            6.2844   -2.4571   -0.6790 C.3       1 MOL1       -0.0844
      4 C            5.3415   -3.6437   -0.4148 C.3       1 MOL1       -0.0915
      5 C            3.9377   -3.2557   -0.9003 C.3       1 MOL1       -0.0879
      6 C            3.4309   -2.0493   -0.0898 C.3       1 MOL1       -0.0631
      7 C            4.3633   -0.8159   -0.1942 C.3       1 MOL1       -0.0055
      8 O            3.9464    0.2288    0.7274 O.3       1 MOL1       -0.1951
      9 C            3.0070    1.1092    0.3382 C.ar      1 MOL1        0.0699
     10 C            3.3804    2.3672   -0.0786 C.ar      1 MOL1       -0.0684
     11 C            2.4216    3.2865   -0.4492 C.ar      1 MOL1       -0.1008
     12 C            1.0906    2.9545   -0.4138 C.ar      1 MOL1       -0.0765
     13 C            0.6833    1.6909   -0.0020 C.ar      1 MOL1        0.0056
     14 C            1.6590    0.7814    0.3930 C.ar      1 MOL1        0.0890
     15 O            1.3086   -0.4488    0.8632 O.3       1 MOL1       -0.3757
     16 C           -0.7110    1.3023    0.0025 C.ar      1 MOL1        0.2149
     17 N           -1.1487    0.0531    0.1701 N.ar      1 MOL1       -0.4002
     18 C           -2.5206    0.0551    0.0864 C.ar      1 MOL1        0.0180
     19 C           -3.4867   -0.9411    0.1616 C.ar      1 MOL1       -0.0467
     20 C           -4.8166   -0.5955    0.0110 C.ar      1 MOL1       -0.0007
     21 C           -5.8337   -1.7000    0.0599 C.2       1 MOL1        0.1496
     22 N           -7.1044   -1.4762    0.2769 N.2       1 MOL1       -0.5970
     23 N           -5.4291   -2.9808   -0.1235 N.am      1 MOL1       -0.4229
     24 C           -5.1365    0.7757   -0.1972 C.ar      1 MOL1        0.1292
     25 F           -6.4008    1.1865   -0.3497 F         1 MOL1       -0.1424
     26 C           -4.1834    1.7563   -0.2648 C.ar      1 MOL1       -0.0725
     27 C           -2.8663    1.3566   -0.1247 C.ar      1 MOL1        0.0863
     28 N           -1.7413    2.1553   -0.1820 N.pl3     1 MOL1       -0.1593
     29 H            5.9206   -1.4894    1.2910 H         1 MOL1        0.0506
     30 H            4.3512   -0.4121   -1.3253 H         1 MOL1        0.0669
     31 H           -1.7099    3.0256   -0.3077 H         1 MOL1        0.2049
     32  H           7.9252   -0.4177    0.0455 H         1 MOL1        0.0435
     33  H           6.7167    0.1966   -1.3711 H         1 MOL1        0.0435
     34  H           6.5380    0.8977    0.4470 H         1 MOL1        0.0435
     35  H           7.4012   -2.7518   -0.3444 H         1 MOL1        0.0463
     36  H           6.2694   -2.1940   -1.8505 H         1 MOL1        0.0463
     37  H           5.7066   -4.6179   -1.0121 H         1 MOL1        0.0460
     38  H           5.3081   -3.8888    0.7588 H         1 MOL1        0.0460
     39  H           3.1975   -4.1864   -0.7423 H         1 MOL1        0.0460
     40  H           3.9818   -2.9783   -2.0678 H         1 MOL1        0.0460
     41  H           2.3538   -1.7681   -0.5311 H         1 MOL1        0.0482
     42  H           3.3093   -2.3767    1.0580 H         1 MOL1        0.0482
     43  H           4.3473    2.6203   -0.1074 H         1 MOL1        0.0924
     44  H           2.6969    4.2004   -0.7477 H         1 MOL1        0.0906
     45  H           0.4091    3.6290   -0.6952 H         1 MOL1        0.0910
     46  H           0.3123   -0.5590    0.9246 H         1 MOL1        0.3295
     47  H          -3.2116   -1.8872    0.3184 H         1 MOL1        0.0923
     48  H          -7.3195   -0.5230    0.4519 H         1 MOL1        0.2200
     49  H          -4.5963   -3.1781   -0.3144 H         1 MOL1        0.2753
     50  H          -6.0158   -3.6311   -0.0523 H         1 MOL1        0.2753
     51  H          -4.4287    2.7137   -0.4139 H         1 MOL1        0.0944
@<TRIPOS>BOND
     1      1      2 1 
     2      2      3 1 
     3      3      4 1 
     4      4      5 1 
     5      5      6 1 
     6      6      7 1 
     7      7      2 1 
     8      7      8 1 
     9      8      9 1 
    10      9     10 ar
    11     10     11 ar
    12     11     12 ar
    13     12     13 ar
    14     13     14 ar
    15     13     16 1 
    16     14      9 ar
    17     14     15 1 
    18     16     17 ar
    19     17     18 ar
    20     18     19 ar
    21     19     20 ar
    22     20     21 1 
    23     20     24 ar
    24     21     22 2 
    25     21     23 am
    26     24     25 1 
    27     24     26 ar
    28     26     27 ar
    29     27     18 ar
    30     27     28 ar
    31     28     16 ar
    32      1     32 1 
    33      1     33 1 
    34      1     34 1 
    35      2     29 1 
    36      3     35 1 
    37      3     36 1 
    38      4     37 1 
    39      4     38 1 
    40      5     39 1 
    41      5     40 1 
    42      6     41 1 
    43      6     42 1 
    44      7     30 1 
    45     10     43 1 
    46     11     44 1 
    47     12     45 1 
    48     15     46 1 
    49     19     47 1 
    50     22     48 1 
    51     23     49 1 
    52     23     50 1 
    53     26     51 1 
    54     28     31 1 
@<TRIPOS>SUBSTRUCTURE
     1 MOL1         1 MOLECULE          1 A
