# Molecule written by the XED library from Cresset
@<TRIPOS>MOLECULE
CHEMBL327715
    41     44      1
SMALL
USER_CHARGES
@<TRIPOS>ATOM
      1 N           -7.4740    1.0783   -0.0057 N.am      1 MOL1       -0.4220
      2 C           -6.5715    0.0666   -0.0127 C.2       1 MOL1        0.1479
      3 N           -6.9358   -1.1865   -0.0023 N.2       1 MOL1       -0.5921
      4 C           -5.1104    0.3473   -0.0295 C.ar      1 MOL1       -0.0232
      5 C           -4.5905    1.6613   -0.0735 C.ar      1 MOL1       -0.0740
      6 C           -3.2467    1.9092   -0.0856 C.ar      1 MOL1       -0.0908
      7 C           -2.4132    0.8017   -0.0520 C.ar      1 MOL1        0.0821
      8 N           -1.0335    0.8064   -0.0509 N.pl3     1 MOL1       -0.1582
      9 C           -0.6849   -0.4948    0.0007 C.ar      1 MOL1        0.2198
     10 N           -1.7674   -1.2769    0.0249 N.ar      1 MOL1       -0.4003
     11 C           -2.8854   -0.4780   -0.0082 C.ar      1 MOL1        0.0255
     12 C           -4.2546   -0.7320    0.0017 C.ar      1 MOL1       -0.0500
     13 C            0.6846   -0.9604    0.0446 C.ar      1 MOL1        0.0055
     14 C            0.8718   -2.3265    0.1765 C.ar      1 MOL1       -0.0599
     15 C            2.1355   -2.8531    0.2453 C.ar      1 MOL1       -0.1034
     16 C            3.2306   -2.0240    0.1891 C.ar      1 MOL1       -0.0652
     17 C            3.0947   -0.6511    0.0536 C.ar      1 MOL1       -0.0136
     18 C            1.8012   -0.1277   -0.0330 C.ar      1 MOL1        0.1013
     19 O            1.6136    1.2063   -0.2125 O.3       1 MOL1       -0.3750
     20 C            4.3111    0.1604    0.0281 C.ar      1 MOL1       -0.0178
     21 C            5.5064   -0.3483   -0.4629 C.ar      1 MOL1       -0.0849
     22 C            6.6531    0.4090   -0.4734 C.ar      1 MOL1       -0.0897
     23 C            6.6340    1.6976    0.0077 C.ar      1 MOL1       -0.0938
     24 C            5.4620    2.2225    0.5003 C.ar      1 MOL1       -0.0897
     25 C            4.3187    1.4610    0.5115 C.ar      1 MOL1       -0.0849
     26 H           -0.5068    1.5094   -0.0702 H         1 MOL1        0.2049
     27  H          -8.3366    0.9048    0.0017 H         1 MOL1        0.2753
     28  H          -7.2090    1.9157   -0.0071 H         1 MOL1        0.2753
     29  H          -7.9301   -1.2932    0.0101 H         1 MOL1        0.2200
     30  H          -5.2179    2.4377   -0.0963 H         1 MOL1        0.0910
     31  H          -2.8835    2.8403   -0.1160 H         1 MOL1        0.0919
     32  H          -4.6056   -1.6678    0.0330 H         1 MOL1        0.0923
     33  H           0.0800   -2.9360    0.2252 H         1 MOL1        0.0910
     34  H           2.2605   -3.8405    0.3422 H         1 MOL1        0.0906
     35  H           4.1431   -2.4251    0.2563 H         1 MOL1        0.0910
     36  H           2.3857    1.6263   -0.7003 H         1 MOL1        0.3295
     37  H           5.5384   -1.2808   -0.8203 H         1 MOL1        0.0910
     38  H           7.5031    0.0227   -0.8316 H         1 MOL1        0.0906
     39  H           7.4677    2.2496   -0.0002 H         1 MOL1        0.0906
     40  H           5.4425    3.1583    0.8522 H         1 MOL1        0.0906
     41  H           3.4756    1.8528    0.8793 H         1 MOL1        0.0910
@<TRIPOS>BOND
     1      1      2 am
     2      2      3 2 
     3      2      4 1 
     4      4      5 ar
     5      5      6 ar
     6      6      7 ar
     7      7      8 ar
     8      8      9 ar
     9      9     10 ar
    10      9     13 1 
    11     10     11 ar
    12     11      7 ar
    13     11     12 ar
    14     12      4 ar
    15     13     14 ar
    16     14     15 ar
    17     15     16 ar
    18     16     17 ar
    19     17     18 ar
    20     17     20 1 
    21     18     13 ar
    22     18     19 1 
    23     20     21 ar
    24     21     22 ar
    25     22     23 ar
    26     23     24 ar
    27     24     25 ar
    28     25     20 ar
    29      1     27 1 
    30      1     28 1 
    31      3     29 1 
    32      5     30 1 
    33      6     31 1 
    34      8     26 1 
    35     12     32 1 
    36     14     33 1 
    37     15     34 1 
    38     16     35 1 
    39     19     36 1 
    40     21     37 1 
    41     22     38 1 
    42     23     39 1 
    43     24     40 1 
    44     25     41 1 
@<TRIPOS>SUBSTRUCTURE
     1 MOL1         1 MOLECULE          1 A
