# Molecule written by the XED library from Cresset
@<TRIPOS>MOLECULE
CHEMBL305425
    51     52      1
SMALL
USER_CHARGES
@<TRIPOS>ATOM
      1 C           -7.8842   -0.5855   -0.7991 C.3       1 MOL1       -0.1115
      2 C           -6.7907   -1.2814    0.0381 C.3       1 MOL1       -0.0156
      3 C           -6.6820   -2.7174   -0.5167 C.3       1 MOL1       -0.1115
      4 C           -7.3321   -1.4213    1.4711 C.3       1 MOL1       -0.1115
      5 C           -5.4651   -0.5050    0.0304 C.ar      1 MOL1       -0.0440
      6 C           -5.4473    0.8619    0.2316 C.ar      1 MOL1       -0.0841
      7 C           -4.2708    1.5694    0.2123 C.ar      1 MOL1       -0.0592
      8 C           -3.0545    0.9391   -0.0037 C.ar      1 MOL1        0.0036
      9 C           -3.0719   -0.4365   -0.1887 C.ar      1 MOL1       -0.0592
     10 C           -4.2537   -1.1377   -0.1715 C.ar      1 MOL1       -0.0841
     11 C           -1.8070    1.7518   -0.0505 C.2       1 MOL1        0.3102
     12 O           -1.9419    2.9707    0.0425 O.2       1 MOL1       -0.4150
     13 N           -0.6045    1.1604   -0.2188 N.am      1 MOL1       -0.3928
     14 C            0.5727    1.9824   -0.5286 C.3       1 MOL1        0.1052
     15 C            1.8675    1.2112   -0.4740 C.2       1 MOL1       -0.1169
     16 C            2.9715    1.6091    0.1490 C.2       1 MOL1       -0.0793
     17 C            4.2332    0.8269    0.1352 C.ar      1 MOL1       -0.0194
     18 C            4.2444   -0.5513    0.0486 C.ar      1 MOL1       -0.0473
     19 C            5.4358   -1.2614    0.0233 C.ar      1 MOL1       -0.0185
     20 C            6.6288   -0.5493    0.0753 C.ar      1 MOL1       -0.0534
     21 C            6.6305    0.8184    0.1686 C.ar      1 MOL1       -0.0816
     22 C            5.4378    1.5124    0.2041 C.ar      1 MOL1        0.0835
     23 O            5.4402    2.8663    0.2926 O.3       1 MOL1       -0.3772
     24 C            5.4259   -2.7498   -0.0661 C.2       1 MOL1        0.1497
     25 N            6.3782   -3.4644    0.4717 N.2       1 MOL1       -0.5905
     26 N            4.4064   -3.3614   -0.7096 N.am      1 MOL1       -0.4216
     27  H          -8.8911   -1.2386   -0.8071 H         1 MOL1        0.0441
     28  H          -7.4928   -0.4451   -1.9246 H         1 MOL1        0.0441
     29  H          -8.1415    0.4882   -0.3321 H         1 MOL1        0.0441
     30  H          -6.2255   -2.6849   -1.6259 H         1 MOL1        0.0441
     31  H          -7.7612   -3.2419   -0.5493 H         1 MOL1        0.0441
     32  H          -5.9714   -3.3738    0.1926 H         1 MOL1        0.0441
     33  H          -7.5066   -0.3325    1.9435 H         1 MOL1        0.0441
     34  H          -6.5405   -2.0259    2.1396 H         1 MOL1        0.0441
     35  H          -8.3721   -2.0196    1.4498 H         1 MOL1        0.0441
     36  H          -6.3051    1.3492    0.3903 H         1 MOL1        0.0908
     37  H          -4.2918    2.5594    0.3523 H         1 MOL1        0.0910
     38  H          -2.2176   -0.9298   -0.3446 H         1 MOL1        0.0910
     39  H          -4.2328   -2.1266   -0.3142 H         1 MOL1        0.0908
     40  H          -0.5225    0.2862   -0.1844 H         1 MOL1        0.2041
     41  H           0.4295    2.3585   -1.6591 H         1 MOL1        0.0615
     42  H           0.6223    2.9417    0.1907 H         1 MOL1        0.0615
     43  H           1.8895    0.3409   -0.9460 H         1 MOL1        0.0894
     44  H           2.9620    2.4851    0.6133 H         1 MOL1        0.0908
     45  H           3.3769   -1.0456    0.0074 H         1 MOL1        0.0914
     46  H           7.5016   -1.0333    0.0395 H         1 MOL1        0.0910
     47  H           7.4980    1.3141    0.2081 H         1 MOL1        0.0924
     48  H           6.3768    3.2332    0.3229 H         1 MOL1        0.3295
     49  H           7.0621   -2.9164    0.9502 H         1 MOL1        0.2200
     50  H           3.7727   -2.8924   -1.0998 H         1 MOL1        0.2753
     51  H           4.3782   -4.2406   -0.7419 H         1 MOL1        0.2753
@<TRIPOS>BOND
     1      1      2 1 
     2      2      3 1 
     3      2      4 1 
     4      2      5 1 
     5      5      6 ar
     6      6      7 ar
     7      7      8 ar
     8      8      9 ar
     9      8     11 1 
    10      9     10 ar
    11     10      5 ar
    12     11     12 2 
    13     11     13 am
    14     13     14 1 
    15     14     15 1 
    16     15     16 2 
    17     16     17 1 
    18     17     18 ar
    19     18     19 ar
    20     19     20 ar
    21     19     24 1 
    22     20     21 ar
    23     21     22 ar
    24     22     17 ar
    25     22     23 1 
    26     24     25 2 
    27     24     26 am
    28      1     27 1 
    29      1     28 1 
    30      1     29 1 
    31      3     30 1 
    32      3     31 1 
    33      3     32 1 
    34      4     33 1 
    35      4     34 1 
    36      4     35 1 
    37      6     36 1 
    38      7     37 1 
    39      9     38 1 
    40     10     39 1 
    41     13     40 1 
    42     14     41 1 
    43     14     42 1 
    44     15     43 1 
    45     16     44 1 
    46     18     45 1 
    47     20     46 1 
    48     21     47 1 
    49     23     48 1 
    50     25     49 1 
    51     26     50 1 
    52     26     51 1 
@<TRIPOS>SUBSTRUCTURE
     1 MOL1         1 MOLECULE          1 A
