# Molecule written by the XED library from Cresset
@<TRIPOS>MOLECULE
CHEMBL299653
    26     25      1
SMALL
USER_CHARGES
@<TRIPOS>ATOM
      1 C           -3.8554    2.9473   -0.5152 C.3       1 MOL1       -0.0439
      2 O           -4.4423    1.6312   -0.5421 O.3       1 MOL1       -0.1622
      3 C           -3.6376    0.5405   -0.3022 C.2       1 MOL1        0.3313
      4 N           -4.2110   -0.6207   -0.0971 N.2       1 MOL1       -0.5668
      5 N           -2.2919    0.6904   -0.2589 N.am      1 MOL1       -0.2483
      6 S           -1.3934   -0.4484    0.4634 S.3       1 MOL1        0.5477
      7 O           -2.4166   -1.3906    0.7819 O.2       1 MOL1       -0.3048
      8 O           -0.9896    0.3149    1.6013 O.2       1 MOL1       -0.3048
      9 C            0.0248   -1.5048   -0.0209 C.3       1 MOL1        0.4522
     10 F           -0.0788   -1.8180   -1.3705 F         1 MOL1       -0.1589
     11 F           -0.0362   -2.7051    0.6780 F         1 MOL1       -0.1589
     12 C            1.4102   -0.9300    0.2782 C.3       1 MOL1        0.3352
     13 F            2.3496   -1.9529    0.3179 F         1 MOL1       -0.1676
     14 F            1.3482   -0.4088    1.5598 F         1 MOL1       -0.1676
     15 C            1.9248    0.1162   -0.7306 C.3       1 MOL1        0.3316
     16 F            2.3952   -0.5605   -1.8652 F         1 MOL1       -0.1658
     17 F            0.8692    0.8993   -1.1947 F         1 MOL1       -0.1658
     18 C            3.0424    0.9788   -0.0683 C.3       1 MOL1        0.4471
     19 F            3.1941    0.7532    1.2895 F         1 MOL1       -0.1490
     20 F            4.3101    0.7135   -0.5767 F         1 MOL1       -0.1490
     21 F            2.7543    2.3379   -0.1717 F         1 MOL1       -0.1490
     22  H          -3.1765    3.0735    0.4662 H         1 MOL1        0.0618
     23  H          -4.7377    3.7601   -0.4762 H         1 MOL1        0.0618
     24  H          -3.1951    3.1309   -1.5006 H         1 MOL1        0.0618
     25  H          -5.2123   -0.5721   -0.1565 H         1 MOL1        0.2209
     26  H          -1.8927    1.4046   -0.5904 H         1 MOL1        0.2112
@<TRIPOS>BOND
     1      1      2 1 
     2      2      3 1 
     3      3      4 2 
     4      3      5 am
     5      5      6 1 
     6      6      7 2 
     7      6      8 2 
     8      6      9 1 
     9      9     10 1 
    10      9     11 1 
    11      9     12 1 
    12     12     13 1 
    13     12     14 1 
    14     12     15 1 
    15     15     16 1 
    16     15     17 1 
    17     15     18 1 
    18     18     19 1 
    19     18     20 1 
    20     18     21 1 
    21      1     22 1 
    22      1     23 1 
    23      1     24 1 
    24      4     25 1 
    25      5     26 1 
@<TRIPOS>SUBSTRUCTURE
     1 MOL1         1 MOLECULE          1 A
