# Molecule written by the XED library from Cresset
@<TRIPOS>MOLECULE
CHEMBL301750
    24     24      1
SMALL
USER_CHARGES
@<TRIPOS>ATOM
      1 N            5.1235    1.1164    0.0845 N.am      1 MOL1       -0.4076
      2 C            4.1778    0.1764   -0.1409 C.2       1 MOL1        0.1624
      3 N            4.4171   -1.1063   -0.0214 N.2       1 MOL1       -0.6615
      4 N            2.9588    0.6233   -0.5050 N.am      1 MOL1       -0.1208
      5 N            1.8808   -0.2641   -0.7346 N.3       1 MOL1       -0.3049
      6 S            0.6012   -0.2864    0.2814 S.3       1 MOL1        0.5415
      7 O            0.8950   -1.6838    0.2842 O.2       1 MOL1       -0.3076
      8 O            1.0999    1.0190    0.5643 O.2       1 MOL1       -0.3076
      9 C           -1.1820   -0.0981    0.1733 C.ar      1 MOL1        0.0714
     10 C           -1.9974   -1.2098    0.1347 C.ar      1 MOL1       -0.0603
     11 C           -3.3590   -1.0468    0.0193 C.ar      1 MOL1       -0.0759
     12 C           -3.9006    0.2182   -0.0565 C.ar      1 MOL1        0.0308
     13 I           -5.9709    0.4668   -0.2569 I         1 MOL1       -0.0578
     14 C           -3.0827    1.3249   -0.0075 C.ar      1 MOL1       -0.0759
     15 C           -1.7220    1.1689    0.1076 C.ar      1 MOL1       -0.0603
     16  H           5.9392    0.8848    0.3192 H         1 MOL1        0.2755
     17  H           4.9267    1.9697   -0.0021 H         1 MOL1        0.2755
     18  H           5.3620   -1.2910    0.2501 H         1 MOL1        0.2204
     19  H           2.8376    1.4856   -0.6360 H         1 MOL1        0.2803
     20  H           2.2126   -1.2085   -0.9660 H         1 MOL1        0.2137
     21  H          -1.6022   -2.1270    0.1845 H         1 MOL1        0.0915
     22  H          -3.9565   -1.8480   -0.0137 H         1 MOL1        0.0927
     23  H          -3.4781    2.2419   -0.0596 H         1 MOL1        0.0927
     24  H          -1.1254    1.9709    0.1381 H         1 MOL1        0.0915
@<TRIPOS>BOND
     1      1      2 am
     2      2      3 2 
     3      2      4 am
     4      4      5 1 
     5      5      6 1 
     6      6      7 2 
     7      6      8 2 
     8      6      9 1 
     9      9     10 ar
    10     10     11 ar
    11     11     12 ar
    12     12     13 1 
    13     12     14 ar
    14     14     15 ar
    15     15      9 ar
    16      1     16 1 
    17      1     17 1 
    18      3     18 1 
    19      4     19 1 
    20      5     20 1 
    21     10     21 1 
    22     11     22 1 
    23     14     23 1 
    24     15     24 1 
@<TRIPOS>SUBSTRUCTURE
     1 MOL1         1 MOLECULE          1 A
