# Molecule written by the XED library from Cresset
@<TRIPOS>MOLECULE
CHEMBL603263
    54     56      1
SMALL
USER_CHARGES
@<TRIPOS>ATOM
      1 N            3.6568   -1.0787   -1.3456 N.3       1 MOL1       -0.5857
      2 C            3.5421   -0.7910    0.0910 C.3       1 MOL1        0.0365
      3 C            4.4913    0.3680    0.4841 C.3       1 MOL1       -0.0383
      4 C            5.9590   -0.1176    0.5129 C.3       1 MOL1       -0.0848
      5 C            6.9044    1.0322    0.9157 C.3       1 MOL1       -0.0916
      6 C            6.7610    2.2090   -0.0692 C.3       1 MOL1       -0.0921
      7 C            5.3049    2.7127   -0.0769 C.3       1 MOL1       -0.0916
      8 C            4.3539    1.5697   -0.4821 C.3       1 MOL1       -0.0848
      9 C            2.0997   -0.4692    0.4478 C.2       1 MOL1        0.2929
     10 O            1.7379    0.6763    0.6817 O.2       1 MOL1       -0.4176
     11 N            1.2681   -1.5339    0.4802 N.am      1 MOL1       -0.3905
     12 C            1.6917   -2.9447    0.3706 C.3       1 MOL1        0.0725
     13 C            0.3634   -3.7096    0.4825 C.3       1 MOL1       -0.0686
     14 C           -0.7059   -2.6846    0.0980 C.3       1 MOL1       -0.0562
     15 C           -0.1818   -1.3604    0.6751 C.3       1 MOL1        0.1604
     16 C           -0.7824   -0.1752   -0.0497 C.2       1 MOL1        0.3241
     17 O           -0.1427    0.5081   -0.8374 O.2       1 MOL1       -0.4176
     18 N           -2.0657    0.0334    0.2863 N.am      1 MOL1       -0.3832
     19 C           -2.8033    1.1492   -0.3249 C.3       1 MOL1        0.1148
     20 C           -4.3136    1.0705   -0.1532 C.ar      1 MOL1       -0.0376
     21 C           -5.0230    2.2417   -0.0033 C.ar      1 MOL1       -0.0898
     22 C           -6.3919    2.2142    0.1363 C.ar      1 MOL1       -0.0836
     23 C           -7.0603    1.0124    0.1266 C.ar      1 MOL1       -0.0642
     24 C           -6.3579   -0.1623   -0.0226 C.ar      1 MOL1        0.0434
     25 Cl          -7.2026   -1.6824   -0.0372 Cl        1 MOL1       -0.1082
     26 C           -4.9879   -0.1319   -0.1630 C.ar      1 MOL1       -0.0581
     27 H            3.9003   -1.7543    0.7066 H         1 MOL1        0.0653
     28 H           -0.4083   -1.3017    1.8525 H         1 MOL1        0.0678
     29  H           2.9921   -1.7880   -1.6725 H         1 MOL1        0.2741
     30  H           4.6212   -1.2988   -1.6197 H         1 MOL1        0.2741
     31  H           4.2013    0.7329    1.5899 H         1 MOL1        0.0503
     32  H           6.2624   -0.5185   -0.5769 H         1 MOL1        0.0463
     33  H           6.0820   -1.0059    1.3100 H         1 MOL1        0.0463
     34  H           6.6280    1.4051    2.0222 H         1 MOL1        0.0460
     35  H           8.0375    0.6373    0.9013 H         1 MOL1        0.0460
     36  H           7.0583    1.8414   -1.1721 H         1 MOL1        0.0460
     37  H           7.4914    3.1010    0.2628 H         1 MOL1        0.0460
     38  H           5.1994    3.6129   -0.8635 H         1 MOL1        0.0460
     39  H           5.0118    3.1033    1.0195 H         1 MOL1        0.0460
     40  H           3.2278    1.9833   -0.4778 H         1 MOL1        0.0463
     41  H           4.6334    1.2060   -1.5909 H         1 MOL1        0.0463
     42  H           2.1926   -3.1760   -0.6937 H         1 MOL1        0.0593
     43  H           2.4141   -3.2821    1.2683 H         1 MOL1        0.0593
     44  H           0.3388   -4.6667   -0.2402 H         1 MOL1        0.0474
     45  H           0.1794   -4.0461    1.6199 H         1 MOL1        0.0474
     46  H          -0.7597   -2.6006   -1.0980 H         1 MOL1        0.0479
     47  H          -1.7797   -2.9714    0.5503 H         1 MOL1        0.0479
     48  H          -2.4666   -0.4922    0.8685 H         1 MOL1        0.2040
     49  H          -2.5595    1.1630   -1.5000 H         1 MOL1        0.0620
     50  H          -2.3933    2.1687    0.1592 H         1 MOL1        0.0620
     51  H          -4.5404    3.1177    0.0018 H         1 MOL1        0.0908
     52  H          -6.9006    3.0684    0.2434 H         1 MOL1        0.0906
     53  H          -8.0549    0.9920    0.2267 H         1 MOL1        0.0939
     54  H          -4.4801   -0.9865   -0.2735 H         1 MOL1        0.0941
@<TRIPOS>BOND
     1      1      2 1 
     2      2      3 1 
     3      2      9 1 
     4      3      4 1 
     5      4      5 1 
     6      5      6 1 
     7      6      7 1 
     8      7      8 1 
     9      8      3 1 
    10      9     10 2 
    11      9     11 am
    12     11     12 1 
    13     12     13 1 
    14     13     14 1 
    15     14     15 1 
    16     15     11 1 
    17     15     16 1 
    18     16     17 2 
    19     16     18 am
    20     18     19 1 
    21     19     20 1 
    22     20     21 ar
    23     21     22 ar
    24     22     23 ar
    25     23     24 ar
    26     24     25 1 
    27     24     26 ar
    28     26     20 ar
    29      1     29 1 
    30      1     30 1 
    31      2     27 1 
    32      3     31 1 
    33      4     32 1 
    34      4     33 1 
    35      5     34 1 
    36      5     35 1 
    37      6     36 1 
    38      6     37 1 
    39      7     38 1 
    40      7     39 1 
    41      8     40 1 
    42      8     41 1 
    43     12     42 1 
    44     12     43 1 
    45     13     44 1 
    46     13     45 1 
    47     14     46 1 
    48     14     47 1 
    49     15     28 1 
    50     18     48 1 
    51     19     49 1 
    52     19     50 1 
    53     21     51 1 
    54     22     52 1 
    55     23     53 1 
    56     26     54 1 
@<TRIPOS>SUBSTRUCTURE
     1 MOL1         1 MOLECULE          1 A
