# Molecule written by the XED library from Cresset
@<TRIPOS>MOLECULE
CHEMBL174456
    54     57      1
SMALL
USER_CHARGES
@<TRIPOS>ATOM
      1 N            8.1760   -2.4292    0.0424 N.am      1 MOL1       -0.4220
      2 C            7.8555   -1.1120    0.0234 C.2       1 MOL1        0.1472
      3 N            8.7673   -0.1777    0.0103 N.2       1 MOL1       -0.5931
      4 C            6.4341   -0.6737    0.0119 C.ar      1 MOL1       -0.0267
      5 C            5.3561   -1.5806    0.0674 C.ar      1 MOL1       -0.0775
      6 C            4.0573   -1.1591    0.0500 C.ar      1 MOL1       -0.0916
      7 C            3.8240    0.2099   -0.0251 C.ar      1 MOL1        0.0622
      8 C            4.8634    1.1118   -0.0771 C.ar      1 MOL1       -0.0421
      9 C            4.2133    2.3805   -0.1505 C.ar      1 MOL1       -0.1645
     10 C            2.9005    2.1515   -0.1412 C.ar      1 MOL1       -0.0014
     11 N            2.5934    0.8136   -0.0614 N.pl3     1 MOL1       -0.1815
     12 C            1.2691    0.1635   -0.0559 C.3       1 MOL1        0.1475
     13 C            0.0567    1.0780   -0.0222 C.2       1 MOL1        0.3186
     14 O            0.1617    2.2624    0.2646 O.2       1 MOL1       -0.4176
     15 N           -1.1139    0.4901   -0.3546 N.am      1 MOL1       -0.3984
     16 C           -2.2983    1.3292   -0.6072 C.3       1 MOL1        0.0721
     17 C           -3.5042    0.8744    0.2348 C.3       1 MOL1       -0.0691
     18 C           -3.8015   -0.6169   -0.0307 C.3       1 MOL1       -0.0503
     19 C           -4.9861   -1.0957    0.8388 C.3       1 MOL1       -0.0464
     20 C           -6.3645   -0.6268    0.3931 C.ar      1 MOL1       -0.0632
     21 C           -6.8745    0.5756    0.8329 C.ar      1 MOL1       -0.0864
     22 C           -8.1228    0.9913    0.4292 C.ar      1 MOL1       -0.0901
     23 C           -8.8707    0.2037   -0.4154 C.ar      1 MOL1       -0.0906
     24 C           -8.3675   -0.9984   -0.8564 C.ar      1 MOL1       -0.0901
     25 C           -7.1180   -1.4112   -0.4530 C.ar      1 MOL1       -0.0864
     26 C           -2.5438   -1.4496    0.2979 C.3       1 MOL1       -0.0691
     27 C           -1.3184   -0.9685   -0.5094 C.3       1 MOL1        0.0721
     28 C            6.1817    0.6795   -0.0579 C.ar      1 MOL1       -0.0584
     29  H           9.0188   -2.6818    0.0575 H         1 MOL1        0.2753
     30  H           7.5482   -3.0434    0.0380 H         1 MOL1        0.2753
     31  H           9.6948   -0.5516    0.0179 H         1 MOL1        0.2200
     32  H           5.5394   -2.5608    0.1206 H         1 MOL1        0.0910
     33  H           3.3006   -1.8117    0.0886 H         1 MOL1        0.0919
     34  H           4.6595    3.2739   -0.2024 H         1 MOL1        0.0919
     35  H           2.2146    2.8770   -0.1878 H         1 MOL1        0.0997
     36  H           1.2459   -0.5519    0.9074 H         1 MOL1        0.0657
     37  H           1.2372   -0.4917   -1.0611 H         1 MOL1        0.0657
     38  H          -2.5857    1.2428   -1.7691 H         1 MOL1        0.0593
     39  H          -2.0596    2.4770   -0.3524 H         1 MOL1        0.0593
     40  H          -3.2510    1.0359    1.3966 H         1 MOL1        0.0476
     41  H          -4.4617    1.5344   -0.0602 H         1 MOL1        0.0476
     42  H          -4.0729   -0.7703   -1.1895 H         1 MOL1        0.0490
     43  H          -4.7926   -0.7407    1.9692 H         1 MOL1        0.0495
     44  H          -5.0011   -2.2965    0.8414 H         1 MOL1        0.0495
     45  H          -6.3341    1.1497    1.4482 H         1 MOL1        0.0908
     46  H          -8.4868    1.8655    0.7506 H         1 MOL1        0.0906
     47  H          -9.7786    0.5043   -0.7079 H         1 MOL1        0.0906
     48  H          -8.9098   -1.5728   -1.4695 H         1 MOL1        0.0906
     49  H          -6.7556   -2.2860   -0.7743 H         1 MOL1        0.0908
     50  H          -2.7414   -2.6045    0.0384 H         1 MOL1        0.0476
     51  H          -2.3051   -1.3447    1.4694 H         1 MOL1        0.0476
     52  H          -0.4090   -1.6476   -0.1262 H         1 MOL1        0.0593
     53  H          -1.5095   -1.2025   -1.6707 H         1 MOL1        0.0593
     54  H           6.9342    1.3369   -0.0970 H         1 MOL1        0.0914
@<TRIPOS>BOND
     1      1      2 am
     2      2      3 2 
     3      2      4 1 
     4      4      5 ar
     5      5      6 ar
     6      6      7 ar
     7      7      8 ar
     8      8      9 ar
     9      8     28 ar
    10      9     10 ar
    11     10     11 ar
    12     11      7 ar
    13     11     12 1 
    14     12     13 1 
    15     13     14 2 
    16     13     15 am
    17     15     16 1 
    18     16     17 1 
    19     17     18 1 
    20     18     19 1 
    21     18     26 1 
    22     19     20 1 
    23     20     21 ar
    24     21     22 ar
    25     22     23 ar
    26     23     24 ar
    27     24     25 ar
    28     25     20 ar
    29     26     27 1 
    30     27     15 1 
    31     28      4 ar
    32      1     29 1 
    33      1     30 1 
    34      3     31 1 
    35      5     32 1 
    36      6     33 1 
    37      9     34 1 
    38     10     35 1 
    39     12     36 1 
    40     12     37 1 
    41     16     38 1 
    42     16     39 1 
    43     17     40 1 
    44     17     41 1 
    45     18     42 1 
    46     19     43 1 
    47     19     44 1 
    48     21     45 1 
    49     22     46 1 
    50     23     47 1 
    51     24     48 1 
    52     25     49 1 
    53     26     50 1 
    54     26     51 1 
    55     27     52 1 
    56     27     53 1 
    57     28     54 1 
@<TRIPOS>SUBSTRUCTURE
     1 MOL1         1 MOLECULE          1 A
