# Molecule written by the XED library from Cresset
@<TRIPOS>MOLECULE
CHEMBL3114558
    56     57      1
SMALL
USER_CHARGES
@<TRIPOS>ATOM
      1 C           -1.9969   -4.4754    0.6684 C.3       1 MOL1       -0.1122
      2 C           -1.1425   -3.2605    0.2526 C.3       1 MOL1       -0.0203
      3 C           -0.1850   -2.9555    1.4222 C.3       1 MOL1       -0.1122
      4 C           -0.2794   -3.7074   -0.9402 C.3       1 MOL1       -0.1122
      5 C           -2.0550   -2.0582   -0.1596 C.3       1 MOL1        0.0740
      6 O           -3.4146   -2.3194    0.2273 O.3       1 MOL1       -0.4291
      7 C           -1.6556   -0.6564    0.3030 C.2       1 MOL1        0.3004
      8 O           -0.6161   -0.4496    0.9121 O.2       1 MOL1       -0.4159
      9 N           -2.5211    0.3382   -0.0126 N.am      1 MOL1       -0.3879
     10 C           -3.8524    0.0957   -0.6215 C.3       1 MOL1        0.0817
     11 C           -4.5879    1.3103   -1.2230 C.3       1 MOL1       -0.0314
     12 N           -4.4172    2.4886   -0.3654 N.3       1 MOL1       -0.4169
     13 C           -2.9920    2.8386   -0.3048 C.3       1 MOL1       -0.0157
     14 C           -2.2024    1.7242    0.4118 C.3       1 MOL1        0.1667
     15 C           -0.7489    2.1524    0.3528 C.2       1 MOL1        0.3257
     16 O           -0.2922    2.9704    1.1387 O.2       1 MOL1       -0.4176
     17 N           -0.0591    1.5614   -0.6380 N.am      1 MOL1       -0.3832
     18 C            1.3292    1.9717   -0.9146 C.3       1 MOL1        0.1154
     19 C            2.4102    0.9620   -0.5248 C.ar      1 MOL1       -0.0323
     20 C            2.1077   -0.3840   -0.5389 C.ar      1 MOL1       -0.0576
     21 C            3.0507   -1.3264   -0.1964 C.ar      1 MOL1        0.0436
     22 Cl           2.6450   -3.0168   -0.2152 Cl        1 MOL1       -0.1082
     23 C            4.3160   -0.9259    0.1629 C.ar      1 MOL1       -0.0637
     24 C            4.6287    0.4122    0.1716 C.ar      1 MOL1       -0.0779
     25 C            3.6899    1.3609   -0.1753 C.ar      1 MOL1       -0.0513
     26 C            4.0851    2.8342   -0.1640 C.3       1 MOL1       -0.0191
     27 N            5.5312    3.0854   -0.1669 N.3       1 MOL1       -0.6086
     28 H           -2.0377   -2.0210   -1.3591 H         1 MOL1        0.0726
     29 H           -2.5226    1.7805    1.5666 H         1 MOL1        0.0688
     30  H          -2.7073   -4.1597    1.5830 H         1 MOL1        0.0438
     31  H          -2.6693   -4.8477   -0.2534 H         1 MOL1        0.0438
     32  H          -1.2948   -5.3840    1.0161 H         1 MOL1        0.0438
     33  H           0.3360   -3.9555    1.8335 H         1 MOL1        0.0438
     34  H          -0.7920   -2.4262    2.3116 H         1 MOL1        0.0438
     35  H           0.6910   -2.2283    1.0424 H         1 MOL1        0.0438
     36  H           0.3660   -2.7810   -1.3445 H         1 MOL1        0.0438
     37  H          -0.9748   -4.1258   -1.8251 H         1 MOL1        0.0438
     38  H           0.4604   -4.5807   -0.5795 H         1 MOL1        0.0438
     39  H          -3.7948   -3.1043   -0.2732 H         1 MOL1        0.3291
     40  H          -3.8031   -0.7194   -1.4982 H         1 MOL1        0.0603
     41  H          -4.5593   -0.3280    0.2503 H         1 MOL1        0.0603
     42  H          -4.1473    1.5379   -2.3154 H         1 MOL1        0.0578
     43  H          -5.7597    1.0643   -1.3257 H         1 MOL1        0.0578
     44  H          -4.8471    2.3839    0.5619 H         1 MOL1        0.2748
     45  H          -2.8635    3.8612    0.3097 H         1 MOL1        0.0583
     46  H          -2.5385    3.0025   -1.4048 H         1 MOL1        0.0583
     47  H          -0.4393    0.9420   -1.1357 H         1 MOL1        0.2040
     48  H           1.4995    3.0054   -0.3285 H         1 MOL1        0.0620
     49  H           1.4265    2.1848   -2.0920 H         1 MOL1        0.0620
     50  H           1.1889   -0.6811   -0.7997 H         1 MOL1        0.0941
     51  H           5.0063   -1.6043    0.4149 H         1 MOL1        0.0939
     52  H           5.5503    0.7032    0.4289 H         1 MOL1        0.0908
     53  H           3.6094    3.3559    0.8058 H         1 MOL1        0.0594
     54  H           3.6393    3.3587   -1.1463 H         1 MOL1        0.0594
     55  H           5.9857    2.7477   -1.0234 H         1 MOL1        0.2740
     56  H           5.9907    2.7354    0.6820 H         1 MOL1        0.2740
@<TRIPOS>BOND
     1      1      2 1 
     2      2      3 1 
     3      2      4 1 
     4      2      5 1 
     5      5      6 1 
     6      5      7 1 
     7      7      8 2 
     8      7      9 am
     9      9     10 1 
    10     10     11 1 
    11     11     12 1 
    12     12     13 1 
    13     13     14 1 
    14     14      9 1 
    15     14     15 1 
    16     15     16 2 
    17     15     17 am
    18     17     18 1 
    19     18     19 1 
    20     19     20 ar
    21     20     21 ar
    22     21     22 1 
    23     21     23 ar
    24     23     24 ar
    25     24     25 ar
    26     25     19 ar
    27     25     26 1 
    28     26     27 1 
    29      1     30 1 
    30      1     31 1 
    31      1     32 1 
    32      3     33 1 
    33      3     34 1 
    34      3     35 1 
    35      4     36 1 
    36      4     37 1 
    37      4     38 1 
    38      5     28 1 
    39      6     39 1 
    40     10     40 1 
    41     10     41 1 
    42     11     42 1 
    43     11     43 1 
    44     12     44 1 
    45     13     45 1 
    46     13     46 1 
    47     14     29 1 
    48     17     47 1 
    49     18     48 1 
    50     18     49 1 
    51     20     50 1 
    52     23     51 1 
    53     24     52 1 
    54     26     53 1 
    55     26     54 1 
    56     27     55 1 
    57     27     56 1 
@<TRIPOS>SUBSTRUCTURE
     1 MOL1         1 MOLECULE          1 A
