# Molecule written by the XED library from Cresset
@<TRIPOS>MOLECULE
CHEMBL151049
    49     51      1
SMALL
USER_CHARGES
@<TRIPOS>ATOM
      1 N           -7.6716   -2.1944    0.0815 N.am      1 MOL1       -0.4216
      2 C           -6.3269   -2.3582    0.0259 C.2       1 MOL1        0.1561
      3 N           -5.7686   -3.5362    0.0730 N.2       1 MOL1       -0.5779
      4 C           -5.4238   -1.1823   -0.0993 C.ar      1 MOL1       -0.0026
      5 C           -5.8692    0.1473    0.0338 C.ar      1 MOL1       -0.0581
      6 C           -5.0150    1.2455    0.0223 C.ar      1 MOL1       -0.0722
      7 C           -3.6360    1.1061   -0.1723 C.ar      1 MOL1       -0.0127
      8 C           -2.7052    2.2474   -0.0300 C.2       1 MOL1       -0.0303
      9 C           -1.3563    2.2161    0.1137 C.2       1 MOL1       -0.0281
     10 C           -0.6624    3.5594    0.1011 C.3       1 MOL1       -0.0449
     11 C            0.6380    3.4402   -0.6992 C.3       1 MOL1       -0.0814
     12 C            1.5433    2.4146   -0.0066 C.3       1 MOL1       -0.0449
     13 C            0.8720    1.0627    0.1457 C.2       1 MOL1       -0.0281
     14 C            1.5204   -0.1257    0.1271 C.2       1 MOL1       -0.0303
     15 C            2.9889   -0.3116    0.1082 C.ar      1 MOL1       -0.0127
     16 C            3.4775   -1.4897   -0.4363 C.ar      1 MOL1       -0.0722
     17 C            4.8246   -1.7408   -0.4759 C.ar      1 MOL1       -0.0581
     18 C            5.7348   -0.8248    0.0313 C.ar      1 MOL1       -0.0026
     19 C            5.2456    0.3471    0.5911 C.ar      1 MOL1       -0.0581
     20 C            3.8982    0.5976    0.6315 C.ar      1 MOL1       -0.0722
     21 C            7.1964   -1.1107   -0.0194 C.2       1 MOL1        0.1561
     22 N            8.0585   -0.1562   -0.2419 N.2       1 MOL1       -0.5779
     23 N            7.6182   -2.3812    0.1638 N.am      1 MOL1       -0.4216
     24 C           -0.5812    0.9845    0.1549 C.2       1 MOL1        0.1793
     25 O           -1.0332   -0.1464    0.2463 O.2       1 MOL1       -0.3945
     26 C           -3.4290   -0.2103   -0.5053 C.ar      1 MOL1       -0.0722
     27 C           -4.0589   -1.3954   -0.2990 C.ar      1 MOL1       -0.0581
     28  H          -8.2014   -2.8905    0.1762 H         1 MOL1        0.2753
     29  H          -8.0278   -1.3935    0.0197 H         1 MOL1        0.2753
     30  H          -6.4405   -4.2723    0.1563 H         1 MOL1        0.2200
     31  H          -6.8424    0.3148    0.1823 H         1 MOL1        0.0910
     32  H          -5.3931    2.1564    0.1872 H         1 MOL1        0.0910
     33  H          -3.1285    3.1432   -0.0427 H         1 MOL1        0.0912
     34  H          -1.3354    4.4001   -0.4285 H         1 MOL1        0.0492
     35  H          -0.4204    3.8969    1.2268 H         1 MOL1        0.0492
     36  H           1.1915    4.5043   -0.7342 H         1 MOL1        0.0465
     37  H           0.3911    3.0760   -1.8156 H         1 MOL1        0.0465
     38  H           1.8359    2.8386    1.0772 H         1 MOL1        0.0492
     39  H           2.5231    2.3109   -0.6907 H         1 MOL1        0.0492
     40  H           0.9664   -0.9457    0.1217 H         1 MOL1        0.0912
     41  H           2.8386   -2.1646   -0.8055 H         1 MOL1        0.0910
     42  H           5.1557   -2.5955   -0.8759 H         1 MOL1        0.0910
     43  H           5.8789    1.0173    0.9771 H         1 MOL1        0.0910
     44  H           3.5704    1.4439    1.0480 H         1 MOL1        0.0910
     45  H           7.6271    0.7339   -0.3872 H         1 MOL1        0.2200
     46  H           7.0409   -3.0281    0.3173 H         1 MOL1        0.2753
     47  H           8.4786   -2.5632    0.1321 H         1 MOL1        0.2753
     48  H          -4.0981   -0.0580   -1.2333 H         1 MOL1        0.0910
     49  H          -3.6067   -2.2861   -0.2548 H         1 MOL1        0.0910
@<TRIPOS>BOND
     1      1      2 am
     2      2      3 2 
     3      2      4 1 
     4      4      5 ar
     5      5      6 ar
     6      6      7 ar
     7      7      8 1 
     8      7     26 ar
     9      8      9 2 
    10      9     10 1 
    11      9     24 1 
    12     10     11 1 
    13     11     12 1 
    14     12     13 1 
    15     13     14 2 
    16     13     24 1 
    17     14     15 1 
    18     15     16 ar
    19     16     17 ar
    20     17     18 ar
    21     18     19 ar
    22     18     21 1 
    23     19     20 ar
    24     20     15 ar
    25     21     22 2 
    26     21     23 am
    27     24     25 2 
    28     26     27 ar
    29     27      4 ar
    30      1     28 1 
    31      1     29 1 
    32      3     30 1 
    33      5     31 1 
    34      6     32 1 
    35      8     33 1 
    36     10     34 1 
    37     10     35 1 
    38     11     36 1 
    39     11     37 1 
    40     12     38 1 
    41     12     39 1 
    42     14     40 1 
    43     16     41 1 
    44     17     42 1 
    45     19     43 1 
    46     20     44 1 
    47     22     45 1 
    48     23     46 1 
    49     23     47 1 
    50     26     48 1 
    51     27     49 1 
@<TRIPOS>SUBSTRUCTURE
     1 MOL1         1 MOLECULE          1 A
