# Molecule written by the XED library from Cresset
@<TRIPOS>MOLECULE
CHEMBL604301
    53     54      1
SMALL
USER_CHARGES
@<TRIPOS>ATOM
      1 C           -2.7614    4.3160    0.6316 C.3       1 MOL1       -0.1161
      2 C           -1.4345    3.4584    0.6486 C.3       1 MOL1       -0.0412
      3 C           -0.3212    2.8473   -0.2628 C.3       1 MOL1       -0.1161
      4 C           -0.8365    4.8033    0.0577 C.3       1 MOL1       -0.1161
      5 C           -2.3736    2.2844    0.1162 C.3       1 MOL1       -0.0074
      6 C           -2.0403    0.8642   -0.3749 C.2       1 MOL1        0.2855
      7 O           -1.0464    0.5671   -1.0255 O.2       1 MOL1       -0.4204
      8 N           -2.9916   -0.0551   -0.0904 N.am      1 MOL1       -0.3910
      9 C           -4.2445    0.2043    0.6490 C.3       1 MOL1        0.0725
     10 C           -5.0964   -1.0203    0.2933 C.3       1 MOL1       -0.0686
     11 C           -4.0683   -2.1352    0.0983 C.3       1 MOL1       -0.0562
     12 C           -2.8943   -1.4375   -0.6005 C.3       1 MOL1        0.1603
     13 C           -1.6360   -2.2447   -0.3597 C.2       1 MOL1        0.3241
     14 O           -1.4540   -3.3168   -0.9192 O.2       1 MOL1       -0.4176
     15 N           -0.7882   -1.6753    0.5114 N.am      1 MOL1       -0.3832
     16 C            0.4422   -2.3870    0.8962 C.3       1 MOL1        0.1157
     17 C            1.7437   -1.6565    0.6041 C.ar      1 MOL1       -0.0267
     18 C            2.9137   -2.2581    1.0123 C.ar      1 MOL1       -0.0825
     19 C            4.1280   -1.6543    0.7885 C.ar      1 MOL1       -0.0574
     20 C            4.1982   -0.4261    0.1501 C.ar      1 MOL1       -0.0078
     21 C            3.0176    0.1721   -0.2602 C.ar      1 MOL1       -0.0574
     22 C            1.8071   -0.4392   -0.0395 C.ar      1 MOL1       -0.0825
     23 C            5.5019    0.2553   -0.0891 C.2       1 MOL1        0.1549
     24 N            6.5606   -0.4248   -0.4357 N.2       1 MOL1       -0.5838
     25 N            5.5667    1.5966    0.0581 N.am      1 MOL1       -0.4206
     26 H           -3.1159   -1.4111   -1.7794 H         1 MOL1        0.0678
     27  H          -3.7770    3.7938    1.0107 H         1 MOL1        0.0438
     28  H          -3.0578    4.8106   -0.4270 H         1 MOL1        0.0438
     29  H          -2.7208    5.1479    1.5010 H         1 MOL1        0.0438
     30  H           0.7879    3.3127   -0.2992 H         1 MOL1        0.0438
     31  H          -0.6614    2.6558   -1.4020 H         1 MOL1        0.0438
     32  H          -0.0472    1.8125    0.2784 H         1 MOL1        0.0438
     33  H           0.2441    5.0144    0.5429 H         1 MOL1        0.0438
     34  H          -0.7828    4.8574   -1.1441 H         1 MOL1        0.0438
     35  H          -1.2947    5.8789    0.3446 H         1 MOL1        0.0438
     36  H          -2.8945    1.9926    1.1556 H         1 MOL1        0.0532
     37  H          -3.1542    2.6163   -0.7378 H         1 MOL1        0.0532
     38  H          -4.0490    0.1918    1.8339 H         1 MOL1        0.0593
     39  H          -4.8201    1.1966    0.2960 H         1 MOL1        0.0593
     40  H          -5.8836   -1.2846    1.1597 H         1 MOL1        0.0474
     41  H          -5.6646   -0.8210   -0.7448 H         1 MOL1        0.0474
     42  H          -4.5063   -3.0412   -0.5552 H         1 MOL1        0.0479
     43  H          -3.7087   -2.5271    1.1738 H         1 MOL1        0.0479
     44  H          -0.9682   -0.8890    0.8638 H         1 MOL1        0.2040
     45  H           0.4837   -3.4402    0.3228 H         1 MOL1        0.0620
     46  H           0.3931   -2.6068    2.0749 H         1 MOL1        0.0620
     47  H           2.8790   -3.1425    1.4778 H         1 MOL1        0.0908
     48  H           4.9651   -2.1055    1.0965 H         1 MOL1        0.0910
     49  H           3.0481    1.0582   -0.7230 H         1 MOL1        0.0910
     50  H           0.9660    0.0019   -0.3465 H         1 MOL1        0.0908
     51  H           6.3799   -1.4034   -0.5332 H         1 MOL1        0.2200
     52  H           4.8560    2.0570    0.3015 H         1 MOL1        0.2753
     53  H           6.3277    2.0140   -0.0857 H         1 MOL1        0.2753
@<TRIPOS>BOND
     1      1      2 1 
     2      2      3 1 
     3      2      4 1 
     4      2      5 1 
     5      5      6 1 
     6      6      7 2 
     7      6      8 am
     8      8      9 1 
     9      9     10 1 
    10     10     11 1 
    11     11     12 1 
    12     12      8 1 
    13     12     13 1 
    14     13     14 2 
    15     13     15 am
    16     15     16 1 
    17     16     17 1 
    18     17     18 ar
    19     18     19 ar
    20     19     20 ar
    21     20     21 ar
    22     20     23 1 
    23     21     22 ar
    24     22     17 ar
    25     23     24 2 
    26     23     25 am
    27      1     27 1 
    28      1     28 1 
    29      1     29 1 
    30      3     30 1 
    31      3     31 1 
    32      3     32 1 
    33      4     33 1 
    34      4     34 1 
    35      4     35 1 
    36      5     36 1 
    37      5     37 1 
    38      9     38 1 
    39      9     39 1 
    40     10     40 1 
    41     10     41 1 
    42     11     42 1 
    43     11     43 1 
    44     12     26 1 
    45     15     44 1 
    46     16     45 1 
    47     16     46 1 
    48     18     47 1 
    49     19     48 1 
    50     21     49 1 
    51     22     50 1 
    52     24     51 1 
    53     25     52 1 
    54     25     53 1 
@<TRIPOS>SUBSTRUCTURE
     1 MOL1         1 MOLECULE          1 A
