# Molecule written by the XED library from Cresset
@<TRIPOS>MOLECULE
CHEMBL3423014
    46     47      1
SMALL
USER_CHARGES
@<TRIPOS>ATOM
      1 C           -1.0079    3.3065    0.2895 C.3       1 MOL1       -0.0933
      2 C           -2.3293    2.5213    0.3419 C.3       1 MOL1        0.0279
      3 N           -3.3569    3.3280   -0.3213 N.3       1 MOL1       -0.5874
      4 C           -2.1925    1.1890   -0.3713 C.2       1 MOL1        0.2908
      5 O           -1.3703    1.0222   -1.2622 O.2       1 MOL1       -0.4176
      6 N           -3.0355    0.2287    0.0625 N.am      1 MOL1       -0.3905
      7 C           -4.0825    0.4290    1.0815 C.3       1 MOL1        0.0725
      8 C           -5.0210   -0.7450    0.7774 C.3       1 MOL1       -0.0686
      9 C           -4.0927   -1.8572    0.2830 C.3       1 MOL1       -0.0562
     10 C           -2.9878   -1.1326   -0.5001 C.3       1 MOL1        0.1603
     11 C           -1.6967   -1.9103   -0.3478 C.2       1 MOL1        0.3241
     12 O           -1.4886   -2.9340   -0.9834 O.2       1 MOL1       -0.4176
     13 N           -0.8519   -1.3677    0.5458 N.am      1 MOL1       -0.3832
     14 C            0.3849   -2.0743    0.9140 C.3       1 MOL1        0.1157
     15 C            1.6615   -1.2956    0.6333 C.ar      1 MOL1       -0.0267
     16 C            2.7627   -1.9801    0.1683 C.ar      1 MOL1       -0.0825
     17 C            3.9451   -1.3238   -0.0731 C.ar      1 MOL1       -0.0574
     18 C            4.0564    0.0401    0.1508 C.ar      1 MOL1       -0.0078
     19 C            2.9397    0.7220    0.6113 C.ar      1 MOL1       -0.0574
     20 C            1.7585    0.0620    0.8517 C.ar      1 MOL1       -0.0825
     21 C            5.3372    0.7659   -0.0949 C.2       1 MOL1        0.1549
     22 N            6.4883    0.1905    0.1245 N.2       1 MOL1       -0.5838
     23 N            5.2900    2.0400   -0.5427 N.am      1 MOL1       -0.4206
     24 H           -2.5919    2.3829    1.5035 H         1 MOL1        0.0649
     25 H           -3.2958   -1.0821   -1.6586 H         1 MOL1        0.0678
     26  H          -0.1436    2.6748    0.8319 H         1 MOL1        0.0449
     27  H          -1.1481    4.3579    0.8506 H         1 MOL1        0.0449
     28  H          -0.7046    3.5030   -0.8546 H         1 MOL1        0.0449
     29  H          -4.2917    2.9075   -0.2722 H         1 MOL1        0.2741
     30  H          -3.0956    3.5730   -1.2833 H         1 MOL1        0.2741
     31  H          -3.6237    0.3075    2.1836 H         1 MOL1        0.0593
     32  H          -4.6846    1.4598    0.9660 H         1 MOL1        0.0593
     33  H          -5.7632   -0.4314   -0.1118 H         1 MOL1        0.0474
     34  H          -5.6449   -1.0795    1.7468 H         1 MOL1        0.0474
     35  H          -3.6008   -2.4066    1.2297 H         1 MOL1        0.0479
     36  H          -4.6764   -2.6519   -0.4012 H         1 MOL1        0.0479
     37  H          -1.0431   -0.6001    0.9326 H         1 MOL1        0.2040
     38  H           0.4199   -3.1242    0.3335 H         1 MOL1        0.0620
     39  H           0.3443   -2.3046    2.0909 H         1 MOL1        0.0620
     40  H           2.7017   -2.9651    0.0080 H         1 MOL1        0.0908
     41  H           4.7296   -1.8405   -0.4149 H         1 MOL1        0.0910
     42  H           2.9946    1.7070    0.7765 H         1 MOL1        0.0910
     43  H           0.9654    0.5691    1.1894 H         1 MOL1        0.0908
     44  H           6.4006   -0.7381    0.4835 H         1 MOL1        0.2200
     45  H           4.5189    2.4315   -0.7044 H         1 MOL1        0.2753
     46  H           6.0392    2.4823   -0.6767 H         1 MOL1        0.2753
@<TRIPOS>BOND
     1      1      2 1 
     2      2      3 1 
     3      2      4 1 
     4      4      5 2 
     5      4      6 am
     6      6      7 1 
     7      7      8 1 
     8      8      9 1 
     9      9     10 1 
    10     10      6 1 
    11     10     11 1 
    12     11     12 2 
    13     11     13 am
    14     13     14 1 
    15     14     15 1 
    16     15     16 ar
    17     16     17 ar
    18     17     18 ar
    19     18     19 ar
    20     18     21 1 
    21     19     20 ar
    22     20     15 ar
    23     21     22 2 
    24     21     23 am
    25      1     26 1 
    26      1     27 1 
    27      1     28 1 
    28      2     24 1 
    29      3     29 1 
    30      3     30 1 
    31      7     31 1 
    32      7     32 1 
    33      8     33 1 
    34      8     34 1 
    35      9     35 1 
    36      9     36 1 
    37     10     25 1 
    38     13     37 1 
    39     14     38 1 
    40     14     39 1 
    41     16     40 1 
    42     17     41 1 
    43     19     42 1 
    44     20     43 1 
    45     22     44 1 
    46     23     45 1 
    47     23     46 1 
@<TRIPOS>SUBSTRUCTURE
     1 MOL1         1 MOLECULE          1 A
