# Molecule written by the XED library from Cresset
@<TRIPOS>MOLECULE
CHEMBL150277
    49     51      1
SMALL
USER_CHARGES
@<TRIPOS>ATOM
      1 N            3.9966   -4.3502   -0.3230 N.am      1 MOL1       -0.4216
      2 C            3.4516   -3.1376   -0.0608 C.2       1 MOL1        0.1561
      3 N            4.1809   -2.0780    0.1570 N.2       1 MOL1       -0.5779
      4 C            1.9751   -2.9709   -0.0056 C.ar      1 MOL1       -0.0026
      5 C            1.0892   -3.8997   -0.5361 C.ar      1 MOL1       -0.0581
      6 C           -0.2655   -3.6931   -0.4736 C.ar      1 MOL1       -0.0722
      7 C           -0.7827   -2.5489    0.1156 C.ar      1 MOL1       -0.0127
      8 C           -2.2523   -2.3851    0.1734 C.2       1 MOL1       -0.0303
      9 C           -2.9319   -1.2127    0.1602 C.2       1 MOL1       -0.0281
     10 C           -4.4386   -1.2532    0.2944 C.3       1 MOL1       -0.0449
     11 C           -5.0733   -0.0261   -0.3805 C.3       1 MOL1       -0.0814
     12 C           -4.5125    1.2444    0.2783 C.3       1 MOL1       -0.0449
     13 C           -3.0050    1.2720    0.1622 C.2       1 MOL1       -0.0281
     14 C           -2.3681    2.4659    0.1912 C.2       1 MOL1       -0.0303
     15 C           -0.9033    2.6393    0.1665 C.ar      1 MOL1       -0.0127
     16 C           -0.0888    1.9154    1.0241 C.ar      1 MOL1       -0.0722
     17 C            1.2717    2.0697    0.9837 C.ar      1 MOL1       -0.0581
     18 C            1.8594    2.9602    0.0968 C.ar      1 MOL1       -0.0026
     19 C            1.0370    3.7027   -0.7410 C.ar      1 MOL1       -0.0581
     20 C           -0.3259    3.5495   -0.7042 C.ar      1 MOL1       -0.0722
     21 C            3.3432    3.0902    0.0548 C.2       1 MOL1        0.1561
     22 N            3.9108    4.2480   -0.1469 N.2       1 MOL1       -0.5779
     23 N            4.0964    1.9820    0.2311 N.am      1 MOL1       -0.4216
     24 C           -2.2825    0.0498   -0.1491 C.2       1 MOL1        0.1793
     25 O           -1.2164    0.1055   -0.7443 O.2       1 MOL1       -0.3945
     26 C            0.1030   -1.6335    0.6642 C.ar      1 MOL1       -0.0722
     27 C            1.4564   -1.8357    0.5973 C.ar      1 MOL1       -0.0581
     28  H           4.8694   -4.4421   -0.3874 H         1 MOL1        0.2753
     29  H           3.4838   -5.0572   -0.4247 H         1 MOL1        0.2753
     30  H           5.1601   -2.2732    0.1003 H         1 MOL1        0.2200
     31  H           1.4378   -4.7282   -0.9725 H         1 MOL1        0.0910
     32  H          -0.8874   -4.3746   -0.8594 H         1 MOL1        0.0910
     33  H          -2.7870   -3.2163    0.2537 H         1 MOL1        0.0912
     34  H          -4.8823   -2.2490   -0.2074 H         1 MOL1        0.0492
     35  H          -4.7242   -1.2366    1.4598 H         1 MOL1        0.0492
     36  H          -4.8041   -0.0254   -1.5500 H         1 MOL1        0.0465
     37  H          -6.2648   -0.0597   -0.2421 H         1 MOL1        0.0465
     38  H          -4.9946    2.2116   -0.2434 H         1 MOL1        0.0492
     39  H          -4.8104    1.2309    1.4408 H         1 MOL1        0.0492
     40  H          -2.9196    3.2861    0.2579 H         1 MOL1        0.0912
     41  H          -0.4980    1.2745    1.6726 H         1 MOL1        0.0910
     42  H           1.8481    1.5325    1.5995 H         1 MOL1        0.0910
     43  H           1.4384    4.3519   -1.3863 H         1 MOL1        0.0910
     44  H          -0.9044    4.0902   -1.3150 H         1 MOL1        0.0910
     45  H           3.2524    4.9945   -0.2398 H         1 MOL1        0.2200
     46  H           3.7177    1.1986    0.3662 H         1 MOL1        0.2753
     47  H           4.9739    2.0430    0.2069 H         1 MOL1        0.2753
     48  H          -0.2515   -0.8126    1.1080 H         1 MOL1        0.0910
     49  H           2.0772   -1.1569    0.9894 H         1 MOL1        0.0910
@<TRIPOS>BOND
     1      1      2 am
     2      2      3 2 
     3      2      4 1 
     4      4      5 ar
     5      5      6 ar
     6      6      7 ar
     7      7      8 1 
     8      7     26 ar
     9      8      9 2 
    10      9     10 1 
    11      9     24 1 
    12     10     11 1 
    13     11     12 1 
    14     12     13 1 
    15     13     14 2 
    16     13     24 1 
    17     14     15 1 
    18     15     16 ar
    19     16     17 ar
    20     17     18 ar
    21     18     19 ar
    22     18     21 1 
    23     19     20 ar
    24     20     15 ar
    25     21     22 2 
    26     21     23 am
    27     24     25 2 
    28     26     27 ar
    29     27      4 ar
    30      1     28 1 
    31      1     29 1 
    32      3     30 1 
    33      5     31 1 
    34      6     32 1 
    35      8     33 1 
    36     10     34 1 
    37     10     35 1 
    38     11     36 1 
    39     11     37 1 
    40     12     38 1 
    41     12     39 1 
    42     14     40 1 
    43     16     41 1 
    44     17     42 1 
    45     19     43 1 
    46     20     44 1 
    47     22     45 1 
    48     23     46 1 
    49     23     47 1 
    50     26     48 1 
    51     27     49 1 
@<TRIPOS>SUBSTRUCTURE
     1 MOL1         1 MOLECULE          1 A
