# Molecule written by the XED library from Cresset
@<TRIPOS>MOLECULE
CHEMBL55035
    52     54      1
SMALL
USER_CHARGES
@<TRIPOS>ATOM
      1 N            4.6884   -2.1789    0.0435 N.am      1 MOL1       -0.4216
      2 C            3.7735   -3.1779    0.0951 C.2       1 MOL1        0.1561
      3 N            4.1188   -4.4306    0.2091 N.2       1 MOL1       -0.5779
      4 C            2.3179   -2.8756    0.0323 C.ar      1 MOL1       -0.0026
      5 C            1.4056   -3.8787    0.3169 C.ar      1 MOL1       -0.0581
      6 C            0.0563   -3.6391    0.2743 C.ar      1 MOL1       -0.0722
      7 C           -0.4557   -2.3895   -0.0538 C.ar      1 MOL1       -0.0127
      8 C           -1.9395   -2.2997   -0.0455 C.2       1 MOL1       -0.0303
      9 C           -2.7472   -1.2141   -0.1931 C.2       1 MOL1       -0.0280
     10 C           -4.1813   -1.6842   -0.0500 C.3       1 MOL1       -0.0457
     11 C           -5.2634   -0.6208   -0.2598 C.3       1 MOL1       -0.0863
     12 C           -5.1858    0.3994    0.8827 C.3       1 MOL1       -0.0863
     13 C           -4.3241    1.5944    0.4648 C.3       1 MOL1       -0.0457
     14 C           -2.8902    1.3212    0.0470 C.2       1 MOL1       -0.0280
     15 C           -2.1512    2.4313    0.3029 C.2       1 MOL1       -0.0303
     16 C           -0.6817    2.5407    0.2167 C.ar      1 MOL1       -0.0127
     17 C            0.1607    1.5901    0.7709 C.ar      1 MOL1       -0.0722
     18 C            1.5216    1.7377    0.6977 C.ar      1 MOL1       -0.0581
     19 C            2.0819    2.8445    0.0763 C.ar      1 MOL1       -0.0026
     20 C            1.2353    3.8068   -0.4554 C.ar      1 MOL1       -0.0581
     21 C           -0.1259    3.6593   -0.3851 C.ar      1 MOL1       -0.0722
     22 C            3.5590    3.0104   -0.0111 C.2       1 MOL1        0.1561
     23 N            4.3323    1.9880   -0.2563 N.2       1 MOL1       -0.5779
     24 N            4.0856    4.2421    0.1631 N.am      1 MOL1       -0.4216
     25 C           -2.2469    0.1236   -0.4860 C.2       1 MOL1        0.1799
     26 O           -1.3445    0.3151   -1.2863 O.2       1 MOL1       -0.3945
     27 C            0.4669   -1.3949   -0.3422 C.ar      1 MOL1       -0.0722
     28 C            1.8177   -1.6262   -0.3026 C.ar      1 MOL1       -0.0581
     29  H           5.5489   -2.3617    0.0631 H         1 MOL1        0.2753
     30  H           4.4319   -1.3396   -0.0042 H         1 MOL1        0.2753
     31  H           5.1111   -4.5488    0.2461 H         1 MOL1        0.2200
     32  H           1.7361   -4.7906    0.5596 H         1 MOL1        0.0910
     33  H          -0.5742   -4.3856    0.4872 H         1 MOL1        0.0910
     34  H          -2.4023   -3.1618    0.1244 H         1 MOL1        0.0912
     35  H          -4.3346   -2.1702    1.0370 H         1 MOL1        0.0492
     36  H          -4.3825   -2.5380   -0.8696 H         1 MOL1        0.0492
     37  H          -6.3255   -1.1792   -0.2168 H         1 MOL1        0.0463
     38  H          -5.1424   -0.0967   -1.3330 H         1 MOL1        0.0463
     39  H          -4.7557   -0.0776    1.8965 H         1 MOL1        0.0463
     40  H          -6.2871    0.8232    1.1028 H         1 MOL1        0.0463
     41  H          -4.3531    2.3282    1.4144 H         1 MOL1        0.0492
     42  H          -4.8719    2.1418   -0.4516 H         1 MOL1        0.0492
     43  H          -2.6273    3.2553    0.5829 H         1 MOL1        0.0912
     44  H          -0.2278    0.7893    1.2266 H         1 MOL1        0.0910
     45  H           2.1126    1.0399    1.1011 H         1 MOL1        0.0910
     46  H           1.6228    4.6168   -0.8957 H         1 MOL1        0.0910
     47  H          -0.7219    4.3639   -0.7704 H         1 MOL1        0.0910
     48  H           3.8232    1.1375   -0.3887 H         1 MOL1        0.2200
     49  H           3.5651    4.9314    0.3335 H         1 MOL1        0.2753
     50  H           4.9568    4.3558    0.1100 H         1 MOL1        0.2753
     51  H           0.1523   -0.4853   -0.5824 H         1 MOL1        0.0910
     52  H           2.4452   -0.8800   -0.5193 H         1 MOL1        0.0910
@<TRIPOS>BOND
     1      1      2 am
     2      2      3 2 
     3      2      4 1 
     4      4      5 ar
     5      5      6 ar
     6      6      7 ar
     7      7      8 1 
     8      7     27 ar
     9      8      9 2 
    10      9     10 1 
    11      9     25 1 
    12     10     11 1 
    13     11     12 1 
    14     12     13 1 
    15     13     14 1 
    16     14     15 2 
    17     14     25 1 
    18     15     16 1 
    19     16     17 ar
    20     17     18 ar
    21     18     19 ar
    22     19     20 ar
    23     19     22 1 
    24     20     21 ar
    25     21     16 ar
    26     22     23 2 
    27     22     24 am
    28     25     26 2 
    29     27     28 ar
    30     28      4 ar
    31      1     29 1 
    32      1     30 1 
    33      3     31 1 
    34      5     32 1 
    35      6     33 1 
    36      8     34 1 
    37     10     35 1 
    38     10     36 1 
    39     11     37 1 
    40     11     38 1 
    41     12     39 1 
    42     12     40 1 
    43     13     41 1 
    44     13     42 1 
    45     15     43 1 
    46     17     44 1 
    47     18     45 1 
    48     20     46 1 
    49     21     47 1 
    50     23     48 1 
    51     24     49 1 
    52     24     50 1 
    53     27     51 1 
    54     28     52 1 
@<TRIPOS>SUBSTRUCTURE
     1 MOL1         1 MOLECULE          1 A
