# Molecule written by the XED library from Cresset
@<TRIPOS>MOLECULE
CHEMBL92251
    41     44      1
SMALL
USER_CHARGES
@<TRIPOS>ATOM
      1 N           -7.5963    1.0260   -0.0200 N.am      1 MOL1       -0.4220
      2 C           -6.6663    0.0397   -0.0155 C.2       1 MOL1        0.1479
      3 N           -6.9969   -1.2230   -0.0293 N.2       1 MOL1       -0.5921
      4 C           -5.2136    0.3640    0.0066 C.ar      1 MOL1       -0.0232
      5 C           -4.7351    1.6917    0.0979 C.ar      1 MOL1       -0.0740
      6 C           -3.4001    1.9818    0.1271 C.ar      1 MOL1       -0.0908
      7 C           -2.5319    0.9030    0.0605 C.ar      1 MOL1        0.0821
      8 N           -1.1537    0.9509    0.0823 N.pl3     1 MOL1       -0.1582
      9 C           -0.7615   -0.3351   -0.0172 C.ar      1 MOL1        0.2205
     10 N           -1.8187   -1.1492   -0.0822 N.ar      1 MOL1       -0.4002
     11 C           -2.9624   -0.3883   -0.0350 C.ar      1 MOL1        0.0255
     12 C           -4.3230   -0.6851   -0.0617 C.ar      1 MOL1       -0.0500
     13 C            0.6224   -0.7622   -0.0222 C.ar      1 MOL1        0.0097
     14 C            0.8338   -2.1291    0.0200 C.ar      1 MOL1       -0.0370
     15 C            2.1077   -2.6317    0.0481 C.ar      1 MOL1        0.0365
     16 Cl           2.3587   -4.3518    0.0947 Cl        1 MOL1       -0.1091
     17 C            3.1866   -1.7789    0.0436 C.ar      1 MOL1       -0.0412
     18 C            3.0396   -0.3982   -0.0058 C.ar      1 MOL1       -0.0087
     19 C            1.7271    0.0910   -0.0553 C.ar      1 MOL1        0.0977
     20 O            1.5077    1.4267   -0.1538 O.3       1 MOL1       -0.3755
     21 C            4.2390    0.4548   -0.0070 C.ar      1 MOL1       -0.0176
     22 C            5.5255   -0.0752   -0.0533 C.ar      1 MOL1       -0.0849
     23 C            6.6438    0.7233   -0.0485 C.ar      1 MOL1       -0.0897
     24 C            6.5175    2.0906    0.0007 C.ar      1 MOL1       -0.0938
     25 C            5.2630    2.6487    0.0459 C.ar      1 MOL1       -0.0897
     26 C            4.1516    1.8413    0.0436 C.ar      1 MOL1       -0.0849
     27 H           -0.6540    1.6658    0.1736 H         1 MOL1        0.2049
     28  H          -8.4537    0.8290   -0.0240 H         1 MOL1        0.2753
     29  H          -7.3542    1.8703   -0.0202 H         1 MOL1        0.2753
     30  H          -7.9880   -1.3562   -0.0426 H         1 MOL1        0.2200
     31  H          -5.3866    2.4468    0.1455 H         1 MOL1        0.0910
     32  H          -3.0668    2.9222    0.1942 H         1 MOL1        0.0919
     33  H          -4.6436   -1.6300   -0.1271 H         1 MOL1        0.0923
     34  H           0.0543   -2.7562    0.0335 H         1 MOL1        0.0943
     35  H           4.0967   -2.1821    0.0767 H         1 MOL1        0.0943
     36  H           0.9182    1.6426   -0.9396 H         1 MOL1        0.3295
     37  H           5.6561   -1.0624   -0.0921 H         1 MOL1        0.0910
     38  H           7.5528    0.3079   -0.0812 H         1 MOL1        0.0906
     39  H           7.3300    2.6733    0.0038 H         1 MOL1        0.0906
     40  H           5.1590    3.6427    0.0817 H         1 MOL1        0.0906
     41  H           3.2540    2.2739    0.0814 H         1 MOL1        0.0910
@<TRIPOS>BOND
     1      1      2 am
     2      2      3 2 
     3      2      4 1 
     4      4      5 ar
     5      5      6 ar
     6      6      7 ar
     7      7      8 ar
     8      8      9 ar
     9      9     10 ar
    10      9     13 1 
    11     10     11 ar
    12     11      7 ar
    13     11     12 ar
    14     12      4 ar
    15     13     14 ar
    16     14     15 ar
    17     15     16 1 
    18     15     17 ar
    19     17     18 ar
    20     18     19 ar
    21     18     21 1 
    22     19     13 ar
    23     19     20 1 
    24     21     22 ar
    25     22     23 ar
    26     23     24 ar
    27     24     25 ar
    28     25     26 ar
    29     26     21 ar
    30      1     28 1 
    31      1     29 1 
    32      3     30 1 
    33      5     31 1 
    34      6     32 1 
    35      8     27 1 
    36     12     33 1 
    37     14     34 1 
    38     17     35 1 
    39     20     36 1 
    40     22     37 1 
    41     23     38 1 
    42     24     39 1 
    43     25     40 1 
    44     26     41 1 
@<TRIPOS>SUBSTRUCTURE
     1 MOL1         1 MOLECULE          1 A
