# Molecule written by the XED library from Cresset
@<TRIPOS>MOLECULE
CHEMBL605210
    52     54      1
SMALL
USER_CHARGES
@<TRIPOS>ATOM
      1 Cl          -3.8839   -0.4062   -0.1758 Cl        1 MOL1       -0.1082
      2 C           -3.2449    1.2099   -0.1930 C.ar      1 MOL1        0.0434
      3 C           -4.0236    2.2715    0.2102 C.ar      1 MOL1       -0.0642
      4 C           -3.5024    3.5450    0.1991 C.ar      1 MOL1       -0.0836
      5 C           -2.2038    3.7571   -0.2078 C.ar      1 MOL1       -0.0898
      6 C           -1.4189    2.6979   -0.6071 C.ar      1 MOL1       -0.0376
      7 C            0.0127    2.9353   -1.0583 C.3       1 MOL1        0.1148
      8 N            0.9558    1.9229   -0.5561 N.am      1 MOL1       -0.3832
      9 C            1.9262    2.2673    0.3075 C.2       1 MOL1        0.3241
     10 O            2.0284    3.3547    0.8579 O.2       1 MOL1       -0.4176
     11 C            2.9371    1.1644    0.5361 C.3       1 MOL1        0.1603
     12 C            4.1852    1.4961   -0.2967 C.3       1 MOL1       -0.0562
     13 C            4.7731    0.1402   -0.6890 C.3       1 MOL1       -0.0686
     14 C            3.5504   -0.7612   -0.8937 C.3       1 MOL1        0.0725
     15 N            2.5944   -0.1943    0.0759 N.am      1 MOL1       -0.3910
     16 C            1.4964   -0.8345    0.5294 C.2       1 MOL1        0.2850
     17 O            0.6604   -0.3227    1.2614 O.2       1 MOL1       -0.4204
     18 C            1.3834   -2.2726    0.0580 C.3       1 MOL1       -0.0096
     19 C            0.0871   -2.9879    0.4879 C.3       1 MOL1       -0.0528
     20 C           -1.1423   -2.3314   -0.1780 C.3       1 MOL1       -0.0873
     21 C           -2.4328   -3.1083    0.1522 C.3       1 MOL1       -0.0916
     22 C           -2.2980   -4.5728   -0.3060 C.3       1 MOL1       -0.0921
     23 C           -1.1025   -5.2350    0.4056 C.3       1 MOL1       -0.0916
     24 C            0.1941   -4.4713    0.0729 C.3       1 MOL1       -0.0873
     25 C           -1.9504    1.4283   -0.6077 C.ar      1 MOL1       -0.0581
     26 H            3.2331    1.1134    1.6974 H         1 MOL1        0.0678
     27  H          -4.9651    2.1186    0.5109 H         1 MOL1        0.0939
     28  H          -4.0659    4.3181    0.4897 H         1 MOL1        0.0906
     29  H          -1.8283    4.6840   -0.2134 H         1 MOL1        0.0908
     30  H           0.3827    4.0276   -0.7260 H         1 MOL1        0.0620
     31  H           0.0299    2.8760   -2.2563 H         1 MOL1        0.0620
     32  H           0.8900    1.0946   -0.8461 H         1 MOL1        0.2040
     33  H           4.9675    2.1635    0.3231 H         1 MOL1        0.0479
     34  H           3.8345    2.0697   -1.2910 H         1 MOL1        0.0479
     35  H           5.4469    0.2169   -1.6783 H         1 MOL1        0.0474
     36  H           5.4212   -0.2839    0.2280 H         1 MOL1        0.0474
     37  H           3.1240   -0.6259   -2.0055 H         1 MOL1        0.0593
     38  H           3.8663   -1.8981   -0.6871 H         1 MOL1        0.0593
     39  H           2.2910   -2.8844    0.5481 H         1 MOL1        0.0530
     40  H           1.4641   -2.3211   -1.1386 H         1 MOL1        0.0530
     41  H          -0.0284   -2.9233    1.6805 H         1 MOL1        0.0490
     42  H          -1.2651   -1.2129    0.2340 H         1 MOL1        0.0463
     43  H          -0.9887   -2.3102   -1.3680 H         1 MOL1        0.0463
     44  H          -3.3615   -2.5978   -0.4115 H         1 MOL1        0.0460
     45  H          -2.6255   -3.0791    1.3361 H         1 MOL1        0.0460
     46  H          -3.3039   -5.1723   -0.0438 H         1 MOL1        0.0460
     47  H          -2.1115   -4.5959   -1.4913 H         1 MOL1        0.0460
     48  H          -0.9976   -6.3727    0.0383 H         1 MOL1        0.0460
     49  H          -1.2812   -5.2153    1.5919 H         1 MOL1        0.0460
     50  H           1.1054   -4.9907    0.6558 H         1 MOL1        0.0463
     51  H           0.3916   -4.5342   -1.1091 H         1 MOL1        0.0463
     52  H          -1.3873    0.6608   -0.9090 H         1 MOL1        0.0941
@<TRIPOS>BOND
     1      1      2 1 
     2      2      3 ar
     3      3      4 ar
     4      4      5 ar
     5      5      6 ar
     6      6      7 1 
     7      6     25 ar
     8      7      8 1 
     9      8      9 am
    10      9     10 2 
    11      9     11 1 
    12     11     12 1 
    13     12     13 1 
    14     13     14 1 
    15     14     15 1 
    16     15     11 1 
    17     15     16 am
    18     16     17 2 
    19     16     18 1 
    20     18     19 1 
    21     19     20 1 
    22     20     21 1 
    23     21     22 1 
    24     22     23 1 
    25     23     24 1 
    26     24     19 1 
    27     25      2 ar
    28      3     27 1 
    29      4     28 1 
    30      5     29 1 
    31      7     30 1 
    32      7     31 1 
    33      8     32 1 
    34     11     26 1 
    35     12     33 1 
    36     12     34 1 
    37     13     35 1 
    38     13     36 1 
    39     14     37 1 
    40     14     38 1 
    41     18     39 1 
    42     18     40 1 
    43     19     41 1 
    44     20     42 1 
    45     20     43 1 
    46     21     44 1 
    47     21     45 1 
    48     22     46 1 
    49     22     47 1 
    50     23     48 1 
    51     23     49 1 
    52     24     50 1 
    53     24     51 1 
    54     25     52 1 
@<TRIPOS>SUBSTRUCTURE
     1 MOL1         1 MOLECULE          1 A
