# Molecule written by the XED library from Cresset
@<TRIPOS>MOLECULE
CHEMBL104505
    47     50      1
SMALL
USER_CHARGES
@<TRIPOS>ATOM
      1 N           -6.9936    1.7053   -0.0002 N.am      1 MOL1       -0.4219
      2 C           -6.0146    0.7674   -0.0005 C.2       1 MOL1        0.1516
      3 N           -6.2799   -0.5101   -0.0004 N.2       1 MOL1       -0.5855
      4 C           -4.5803    1.1650   -0.0008 C.ar      1 MOL1       -0.0108
      5 C           -4.1639    2.5134   -0.0008 C.ar      1 MOL1       -0.0650
      6 C           -2.8523    2.8330   -0.0006 C.ar      1 MOL1       -0.0836
      7 C           -1.8776    1.8192   -0.0004 C.ar      1 MOL1       -0.0116
      8 C           -0.5274    2.1818    0.0005 C.ar      1 MOL1       -0.0793
      9 C            0.4599    1.2354    0.0009 C.ar      1 MOL1        0.0084
     10 C            0.0718   -0.1197   -0.0004 C.ar      1 MOL1       -0.0911
     11 C           -1.2332   -0.5236   -0.0010 C.ar      1 MOL1        0.0953
     12 N           -1.5614   -1.9118   -0.0018 N.pl3     1 MOL1       -0.1931
     13 C           -0.7031   -2.9858   -0.0009 C.ar      1 MOL1        0.3211
     14 N           -1.3231   -4.1864   -0.0009 N.ar      1 MOL1       -0.3422
     15 C           -0.4946   -5.2405   -0.0002 C.ar      1 MOL1        0.0659
     16 C            0.8671   -5.1040    0.0003 C.ar      1 MOL1       -0.0861
     17 C            1.3944   -3.8411    0.0002 C.ar      1 MOL1        0.0659
     18 N            0.6269   -2.7421   -0.0003 N.ar      1 MOL1       -0.3422
     19 C           -2.2552    0.4677   -0.0008 C.ar      1 MOL1       -0.0070
     20 C           -3.6321    0.1802   -0.0009 C.ar      1 MOL1       -0.0335
     21 C            1.8845    1.6751    0.0026 C.2       1 MOL1        0.3242
     22 O            2.0718    2.8887   -0.0096 O.2       1 MOL1       -0.4087
     23 N            2.8886    0.7635    0.0176 N.am      1 MOL1       -0.2239
     24 C            4.2784    0.9820    0.0079 C.ar      1 MOL1        0.0696
     25 C            5.1374   -0.1042   -0.0018 C.ar      1 MOL1       -0.1033
     26 C            6.4996    0.0763   -0.0101 C.ar      1 MOL1       -0.0879
     27 C            7.0256    1.3480   -0.0089 C.ar      1 MOL1       -0.1196
     28 C            6.1843    2.4373    0.0006 C.ar      1 MOL1       -0.0879
     29 C            4.8215    2.2576    0.0091 C.ar      1 MOL1       -0.1033
     30  H          -7.8399    1.4650   -0.0002 H         1 MOL1        0.2753
     31  H          -6.7946    2.5609    0.0001 H         1 MOL1        0.2753
     32  H          -7.2630   -0.6940   -0.0003 H         1 MOL1        0.2200
     33  H          -4.8423    3.2462   -0.0010 H         1 MOL1        0.0910
     34  H          -2.5729    3.7931   -0.0005 H         1 MOL1        0.0910
     35  H          -0.2793    3.1505    0.0010 H         1 MOL1        0.0914
     36  H           0.7783   -0.8233   -0.0010 H         1 MOL1        0.0923
     37  H          -2.4142   -2.1197   -0.0028 H         1 MOL1        0.2054
     38  H          -0.8863   -6.1606   -0.0002 H         1 MOL1        0.0995
     39  H           1.4625   -5.9075    0.0008 H         1 MOL1        0.0924
     40  H           2.3888   -3.7341    0.0006 H         1 MOL1        0.0995
     41  H          -3.9364   -0.7706   -0.0009 H         1 MOL1        0.0914
     42  H           2.6473   -0.0805    0.0360 H         1 MOL1        0.2056
     43  H           4.7618   -1.0309   -0.0025 H         1 MOL1        0.0919
     44  H           7.1089   -0.7167   -0.0169 H         1 MOL1        0.0906
     45  H           8.0169    1.4803   -0.0149 H         1 MOL1        0.0906
     46  H           6.5655    3.3618    0.0015 H         1 MOL1        0.0906
     47  H           4.2228    3.0565    0.0164 H         1 MOL1        0.0919
@<TRIPOS>BOND
     1      1      2 am
     2      2      3 2 
     3      2      4 1 
     4      4      5 ar
     5      5      6 ar
     6      6      7 ar
     7      7      8 ar
     8      8      9 ar
     9      9     10 ar
    10      9     21 1 
    11     10     11 ar
    12     11     12 1 
    13     11     19 ar
    14     12     13 1 
    15     13     14 ar
    16     14     15 ar
    17     15     16 ar
    18     16     17 ar
    19     17     18 ar
    20     18     13 ar
    21     19      7 ar
    22     19     20 ar
    23     20      4 ar
    24     21     22 2 
    25     21     23 am
    26     23     24 1 
    27     24     25 ar
    28     25     26 ar
    29     26     27 ar
    30     27     28 ar
    31     28     29 ar
    32     29     24 ar
    33      1     30 1 
    34      1     31 1 
    35      3     32 1 
    36      5     33 1 
    37      6     34 1 
    38      8     35 1 
    39     10     36 1 
    40     12     37 1 
    41     15     38 1 
    42     16     39 1 
    43     17     40 1 
    44     20     41 1 
    45     23     42 1 
    46     25     43 1 
    47     26     44 1 
    48     27     45 1 
    49     28     46 1 
    50     29     47 1 
@<TRIPOS>SUBSTRUCTURE
     1 MOL1         1 MOLECULE          1 A
