# Molecule written by the XED library from Cresset
@<TRIPOS>MOLECULE
CHEMBL596781
    47     48      1
SMALL
USER_CHARGES
@<TRIPOS>ATOM
      1 C           -1.7353    4.4093   -0.5475 C.3       1 MOL1       -0.1175
      2 C           -1.4890    2.9002   -0.7351 C.3       1 MOL1       -0.0459
      3 C            0.0204    2.6613   -0.8993 C.3       1 MOL1       -0.1175
      4 C           -2.0419    2.1195    0.4782 C.3       1 MOL1        0.0353
      5 N           -3.4840    2.3642    0.6033 N.3       1 MOL1       -0.5857
      6 C           -1.5501    0.6799    0.5816 C.2       1 MOL1        0.2926
      7 O           -0.4890    0.4506    1.1470 O.2       1 MOL1       -0.4176
      8 N           -2.3506   -0.2826    0.0717 N.am      1 MOL1       -0.3905
      9 C           -3.5606   -0.0550   -0.7368 C.3       1 MOL1        0.0725
     10 C           -4.0897   -1.4673   -1.0328 C.3       1 MOL1       -0.0686
     11 C           -2.9041   -2.3986   -0.7791 C.3       1 MOL1       -0.0562
     12 C           -2.1020   -1.7128    0.3354 C.3       1 MOL1        0.1603
     13 C           -0.6811   -2.2328    0.3065 C.2       1 MOL1        0.3241
     14 O           -0.3156   -3.1516    1.0270 O.2       1 MOL1       -0.4176
     15 N            0.0876   -1.6062   -0.5984 N.am      1 MOL1       -0.3832
     16 C            1.4133   -2.1507   -0.9300 C.3       1 MOL1        0.1148
     17 C            2.6109   -1.3135   -0.5080 C.ar      1 MOL1       -0.0376
     18 C            3.8305   -1.9455   -0.4054 C.ar      1 MOL1       -0.0898
     19 C            4.9612   -1.2359   -0.0704 C.ar      1 MOL1       -0.0836
     20 C            4.8797    0.1177    0.1584 C.ar      1 MOL1       -0.0642
     21 C            3.6644    0.7576    0.0595 C.ar      1 MOL1        0.0434
     22 Cl           3.5618    2.4727    0.3322 Cl        1 MOL1       -0.1082
     23 C            2.5338    0.0403   -0.2640 C.ar      1 MOL1       -0.0581
     24 H           -1.5600    2.6361    1.4478 H         1 MOL1        0.0653
     25 H           -2.5975   -1.9886    1.3929 H         1 MOL1        0.0678
     26  H          -2.9100    4.5922   -0.3892 H         1 MOL1        0.0435
     27  H          -1.1415    4.8064    0.4169 H         1 MOL1        0.0435
     28  H          -1.3695    5.0116   -1.5186 H         1 MOL1        0.0435
     29  H          -2.0434    2.5411   -1.7351 H         1 MOL1        0.0498
     30  H           0.5025    3.4782   -1.6359 H         1 MOL1        0.0435
     31  H           0.5551    2.7186    0.1734 H         1 MOL1        0.0435
     32  H           0.1669    1.5716   -1.3772 H         1 MOL1        0.0435
     33  H          -3.9763    2.2026   -0.2837 H         1 MOL1        0.2741
     34  H          -3.9069    1.8734    1.4007 H         1 MOL1        0.2741
     35  H          -4.4077    0.5105   -0.1053 H         1 MOL1        0.0593
     36  H          -3.2913    0.5229   -1.7528 H         1 MOL1        0.0593
     37  H          -4.4902   -1.5643   -2.1600 H         1 MOL1        0.0474
     38  H          -4.9623   -1.7495   -0.2566 H         1 MOL1        0.0474
     39  H          -2.2276   -2.4556   -1.7672 H         1 MOL1        0.0479
     40  H          -3.2631   -3.4979   -0.4622 H         1 MOL1        0.0479
     41  H          -0.2109   -0.8942   -1.0218 H         1 MOL1        0.2040
     42  H           1.5081   -3.2520   -0.4614 H         1 MOL1        0.0620
     43  H           1.4616   -2.2546   -2.1245 H         1 MOL1        0.0620
     44  H           3.8959   -2.9273   -0.5821 H         1 MOL1        0.0908
     45  H           5.8423   -1.7036    0.0006 H         1 MOL1        0.0906
     46  H           5.7017    0.6363    0.3944 H         1 MOL1        0.0939
     47  H           1.6534    0.5057   -0.3302 H         1 MOL1        0.0941
@<TRIPOS>BOND
     1      1      2 1 
     2      2      3 1 
     3      2      4 1 
     4      4      5 1 
     5      4      6 1 
     6      6      7 2 
     7      6      8 am
     8      8      9 1 
     9      9     10 1 
    10     10     11 1 
    11     11     12 1 
    12     12      8 1 
    13     12     13 1 
    14     13     14 2 
    15     13     15 am
    16     15     16 1 
    17     16     17 1 
    18     17     18 ar
    19     18     19 ar
    20     19     20 ar
    21     20     21 ar
    22     21     22 1 
    23     21     23 ar
    24     23     17 ar
    25      1     26 1 
    26      1     27 1 
    27      1     28 1 
    28      2     29 1 
    29      3     30 1 
    30      3     31 1 
    31      3     32 1 
    32      4     24 1 
    33      5     33 1 
    34      5     34 1 
    35      9     35 1 
    36      9     36 1 
    37     10     37 1 
    38     10     38 1 
    39     11     39 1 
    40     11     40 1 
    41     12     25 1 
    42     15     41 1 
    43     16     42 1 
    44     16     43 1 
    45     18     44 1 
    46     19     45 1 
    47     20     46 1 
    48     23     47 1 
@<TRIPOS>SUBSTRUCTURE
     1 MOL1         1 MOLECULE          1 A
