# Molecule written by the XED library from Cresset
@<TRIPOS>MOLECULE
CHEMBL269032
    49     51      1
SMALL
USER_CHARGES
@<TRIPOS>ATOM
      1 N            8.0310    0.0707   -0.2897 N.am      1 MOL1       -0.4232
      2 C            7.0109    0.9093    0.0205 C.2       1 MOL1        0.1422
      3 N            7.2133    2.1458    0.3932 N.2       1 MOL1       -0.5987
      4 C            5.6034    0.4392   -0.0466 C.ar      1 MOL1       -0.0348
      5 C            5.2257   -0.7341   -0.6898 C.ar      1 MOL1       -0.0556
      6 C            3.9117   -1.1268   -0.7317 C.ar      1 MOL1       -0.1119
      7 C            2.9223   -0.3632   -0.1255 C.ar      1 MOL1        0.0664
      8 C            3.3006    0.8088    0.5159 C.ar      1 MOL1       -0.1119
      9 C            4.6122    1.2032    0.5520 C.ar      1 MOL1       -0.0556
     10 N            1.5713   -0.7471   -0.1460 N.pl3     1 MOL1       -0.1360
     11 C            1.1341   -2.1487   -0.3499 C.3       1 MOL1       -0.0389
     12 C            0.2096   -2.6058    0.8000 C.3       1 MOL1       -0.0618
     13 C           -1.2442   -2.0951    0.6679 C.3       1 MOL1       -0.0389
     14 N           -1.5647   -0.6979    0.2898 N.pl3     1 MOL1       -0.1360
     15 C           -0.5219    0.2867    0.6439 C.3       1 MOL1       -0.0255
     16 C            0.5342    0.2520   -0.4755 C.3       1 MOL1       -0.0255
     17 C           -2.9069   -0.3026    0.1462 C.ar      1 MOL1        0.0664
     18 C           -3.2355    0.9514   -0.3561 C.ar      1 MOL1       -0.1119
     19 C           -4.5434    1.3495   -0.4651 C.ar      1 MOL1       -0.0556
     20 C           -5.5834    0.5107   -0.0841 C.ar      1 MOL1       -0.0348
     21 C           -5.2552   -0.7504    0.3932 C.ar      1 MOL1       -0.0556
     22 C           -3.9490   -1.1500    0.5025 C.ar      1 MOL1       -0.1119
     23 C           -7.0082    0.9288   -0.1862 C.2       1 MOL1        0.1422
     24 N           -7.3626    2.1676    0.0324 N.2       1 MOL1       -0.5987
     25 N           -7.9392    0.0016   -0.5064 N.am      1 MOL1       -0.4232
     26  H           8.8630    0.3548   -0.2629 H         1 MOL1        0.2753
     27  H           7.8724   -0.7658   -0.5126 H         1 MOL1        0.2753
     28  H           8.1849    2.3829    0.4102 H         1 MOL1        0.2200
     29  H           5.9173   -1.3025   -1.1337 H         1 MOL1        0.0910
     30  H           3.6697   -1.9706   -1.2084 H         1 MOL1        0.0917
     31  H           2.6069    1.3749    0.9615 H         1 MOL1        0.0917
     32  H           4.8578    2.0527    1.0196 H         1 MOL1        0.0910
     33  H           2.0652   -2.9027   -0.3240 H         1 MOL1        0.0571
     34  H           0.5698   -2.2821   -1.4025 H         1 MOL1        0.0571
     35  H           0.1767   -3.8051    0.8347 H         1 MOL1        0.0482
     36  H           0.6859   -2.2287    1.8330 H         1 MOL1        0.0482
     37  H          -1.8007   -2.7991   -0.1303 H         1 MOL1        0.0571
     38  H          -1.7469   -2.3028    1.7389 H         1 MOL1        0.0571
     39  H          -0.0079   -0.0037    1.6885 H         1 MOL1        0.0581
     40  H          -0.9605    1.3959    0.7725 H         1 MOL1        0.0581
     41  H          -0.0088   -0.0278   -1.5077 H         1 MOL1        0.0581
     42  H           1.0000    1.3507   -0.6047 H         1 MOL1        0.0581
     43  H          -2.5112    1.5793   -0.6400 H         1 MOL1        0.0917
     44  H          -4.7462    2.2586   -0.8290 H         1 MOL1        0.0910
     45  H          -5.9827   -1.3787    0.6688 H         1 MOL1        0.0910
     46  H          -3.7473   -2.0651    0.8488 H         1 MOL1        0.0917
     47  H          -6.5975    2.7599    0.2845 H         1 MOL1        0.2200
     48  H          -7.7098   -0.8351   -0.6566 H         1 MOL1        0.2753
     49  H          -8.7836    0.2391   -0.5694 H         1 MOL1        0.2753
@<TRIPOS>BOND
     1      1      2 am
     2      2      3 2 
     3      2      4 1 
     4      4      5 ar
     5      5      6 ar
     6      6      7 ar
     7      7      8 ar
     8      7     10 1 
     9      8      9 ar
    10      9      4 ar
    11     10     11 1 
    12     11     12 1 
    13     12     13 1 
    14     13     14 1 
    15     14     15 1 
    16     14     17 1 
    17     15     16 1 
    18     16     10 1 
    19     17     18 ar
    20     18     19 ar
    21     19     20 ar
    22     20     21 ar
    23     20     23 1 
    24     21     22 ar
    25     22     17 ar
    26     23     24 2 
    27     23     25 am
    28      1     26 1 
    29      1     27 1 
    30      3     28 1 
    31      5     29 1 
    32      6     30 1 
    33      8     31 1 
    34      9     32 1 
    35     11     33 1 
    36     11     34 1 
    37     12     35 1 
    38     12     36 1 
    39     13     37 1 
    40     13     38 1 
    41     15     39 1 
    42     15     40 1 
    43     16     41 1 
    44     16     42 1 
    45     18     43 1 
    46     19     44 1 
    47     21     45 1 
    48     22     46 1 
    49     24     47 1 
    50     25     48 1 
    51     25     49 1 
@<TRIPOS>SUBSTRUCTURE
     1 MOL1         1 MOLECULE          1 A
