# Molecule written by the XED library from Cresset
@<TRIPOS>MOLECULE
CHEMBL3933799
    51     54      1
SMALL
USER_CHARGES
@<TRIPOS>ATOM
      1 N           -4.7455   -3.2063    0.2962 N.3       1 MOL1       -0.6086
      2 C           -4.0972   -1.9044    0.0888 C.3       1 MOL1       -0.0191
      3 C           -5.0335   -0.6996    0.0868 C.ar      1 MOL1       -0.0515
      4 C           -6.3762   -0.8779   -0.1740 C.ar      1 MOL1       -0.0779
      5 C           -7.2402    0.1912   -0.1737 C.ar      1 MOL1       -0.0637
      6 C           -6.7669    1.4564    0.0859 C.ar      1 MOL1        0.0436
      7 Cl          -7.8506    2.8154    0.1137 Cl        1 MOL1       -0.1082
      8 C           -5.4251    1.6416    0.3289 C.ar      1 MOL1       -0.0578
      9 C           -4.5528    0.5757    0.3280 C.ar      1 MOL1       -0.0376
     10 C           -3.0844    0.8820    0.6077 C.3       1 MOL1        0.0066
     11 N           -2.1737    0.0935   -0.2582 N.2       1 MOL1       -0.4054
     12 C           -0.8996    0.2827   -0.2557 C.2       1 MOL1        0.2557
     13 O           -0.2304    1.1940    0.4906 O.3       1 MOL1       -0.3363
     14 C            0.0170   -0.5231   -1.1410 C.3       1 MOL1        0.1469
     15 C           -0.0479   -2.0379   -0.8740 C.3       1 MOL1       -0.0116
     16 C            1.4387   -2.2700   -0.5437 C.3       1 MOL1        0.0602
     17 N            1.3772   -0.8102   -0.6797 N.am      1 MOL1       -0.3934
     18 C            2.3637    0.0928   -0.5193 C.2       1 MOL1        0.3029
     19 O            2.1747    1.2995   -0.4369 O.2       1 MOL1       -0.4171
     20 C            3.7523   -0.5256   -0.5390 C.3       1 MOL1        0.0823
     21 N            4.0351   -1.5268    0.5052 N.3       1 MOL1       -0.3926
     22 C            5.4947   -1.6642    0.6218 C.3       1 MOL1       -0.0084
     23 C            5.9185   -0.2440    0.3382 C.ar      1 MOL1       -0.0448
     24 C            7.1027    0.3815    0.6493 C.ar      1 MOL1       -0.0840
     25 C            7.2624    1.7064    0.3063 C.ar      1 MOL1       -0.0900
     26 C            6.2514    2.3844   -0.3431 C.ar      1 MOL1       -0.0900
     27 C            5.0740    1.7425   -0.6617 C.ar      1 MOL1       -0.0830
     28 C            4.9162    0.4203   -0.3137 C.ar      1 MOL1       -0.0328
     29 H           -0.0225   -0.2518   -2.3090 H         1 MOL1        0.0675
     30  H          -5.5173   -3.3790   -0.3597 H         1 MOL1        0.2740
     31  H          -4.0671   -3.9799    0.3037 H         1 MOL1        0.2740
     32  H          -3.2864   -1.7594    0.9627 H         1 MOL1        0.0594
     33  H          -3.5227   -1.9319   -0.9646 H         1 MOL1        0.0594
     34  H          -6.7254   -1.7961   -0.3603 H         1 MOL1        0.0908
     35  H          -8.2125    0.0480   -0.3562 H         1 MOL1        0.0939
     36  H          -5.0786    2.5614    0.5109 H         1 MOL1        0.0941
     37  H          -2.8777    2.0466    0.4074 H         1 MOL1        0.0620
     38  H          -2.8349    0.6449    1.7569 H         1 MOL1        0.0620
     39  H          -0.8592    1.7545    1.0409 H         1 MOL1        0.3296
     40  H          -0.3882   -2.6603   -1.8414 H         1 MOL1        0.0522
     41  H          -0.7366   -2.2722    0.0805 H         1 MOL1        0.0522
     42  H           2.0759   -2.7964   -1.4125 H         1 MOL1        0.0597
     43  H           1.6193   -2.6648    0.5755 H         1 MOL1        0.0597
     44  H           3.9192   -1.0412   -1.6114 H         1 MOL1        0.0681
     45  H           3.5439   -2.4222    0.3953 H         1 MOL1        0.2751
     46  H           5.9121   -2.3891   -0.2387 H         1 MOL1        0.0596
     47  H           5.8208   -2.0442    1.7127 H         1 MOL1        0.0596
     48  H           7.8328   -0.1137    1.1205 H         1 MOL1        0.0908
     49  H           8.1145    2.1799    0.5305 H         1 MOL1        0.0906
     50  H           6.3722    3.3469   -0.5852 H         1 MOL1        0.0906
     51  H           4.3416    2.2316   -1.1359 H         1 MOL1        0.0908
@<TRIPOS>BOND
     1      1      2 1 
     2      2      3 1 
     3      3      4 ar
     4      4      5 ar
     5      5      6 ar
     6      6      7 1 
     7      6      8 ar
     8      8      9 ar
     9      9      3 ar
    10      9     10 1 
    11     10     11 1 
    12     11     12 2 
    13     12     13 1 
    14     12     14 1 
    15     14     15 1 
    16     15     16 1 
    17     16     17 1 
    18     17     14 1 
    19     17     18 am
    20     18     19 2 
    21     18     20 1 
    22     20     21 1 
    23     21     22 1 
    24     22     23 1 
    25     23     24 ar
    26     24     25 ar
    27     25     26 ar
    28     26     27 ar
    29     27     28 ar
    30     28     20 1 
    31     28     23 ar
    32      1     30 1 
    33      1     31 1 
    34      2     32 1 
    35      2     33 1 
    36      4     34 1 
    37      5     35 1 
    38      8     36 1 
    39     10     37 1 
    40     10     38 1 
    41     13     39 1 
    42     14     29 1 
    43     15     40 1 
    44     15     41 1 
    45     16     42 1 
    46     16     43 1 
    47     20     44 1 
    48     21     45 1 
    49     22     46 1 
    50     22     47 1 
    51     24     48 1 
    52     25     49 1 
    53     26     50 1 
    54     27     51 1 
@<TRIPOS>SUBSTRUCTURE
     1 MOL1         1 MOLECULE          1 A
