# Molecule written by the XED library from Cresset
@<TRIPOS>MOLECULE
CHEMBL3969379
    52     54      1
SMALL
USER_CHARGES
@<TRIPOS>ATOM
      1 C           -6.6602   -1.8569   -0.1802 C.3       1 MOL1       -0.1113
      2 C           -5.1839   -1.6546    0.2054 C.3       1 MOL1       -0.0091
      3 C           -4.3144   -2.9096    0.3973 C.3       1 MOL1       -0.1113
      4 C           -4.9518   -0.5776    1.2757 C.3       1 MOL1       -0.0401
      5 C           -4.5115   -0.3192   -0.1795 C.3       1 MOL1        0.0859
      6 O           -5.3456    0.6095   -0.8907 O.3       1 MOL1       -0.4233
      7 C           -3.0242   -0.2996   -0.4842 C.2       1 MOL1        0.3022
      8 O           -2.4664   -1.2350   -1.0420 O.2       1 MOL1       -0.4154
      9 N           -2.4008    0.8416   -0.1239 N.am      1 MOL1       -0.3905
     10 C           -3.0594    1.9640    0.5687 C.3       1 MOL1        0.0725
     11 C           -2.0411    3.0948    0.3713 C.3       1 MOL1       -0.0686
     12 C           -0.6873    2.3835    0.2954 C.3       1 MOL1       -0.0574
     13 C           -0.9781    1.0625   -0.4312 C.3       1 MOL1        0.1589
     14 C           -0.0243    0.0083    0.0754 C.2       1 MOL1        0.2581
     15 N            1.2247    0.0181   -0.2391 N.2       1 MOL1       -0.4054
     16 C            2.1627   -0.9973    0.2947 C.3       1 MOL1        0.0066
     17 C            3.6321   -0.6367    0.1077 C.ar      1 MOL1       -0.0376
     18 C            4.5123   -1.6962    0.1289 C.ar      1 MOL1       -0.0578
     19 C            5.8653   -1.4914   -0.0183 C.ar      1 MOL1        0.0436
     20 Cl           6.9628   -2.8399    0.0146 Cl        1 MOL1       -0.1082
     21 C            6.3466   -0.2149   -0.1906 C.ar      1 MOL1       -0.0637
     22 C            5.4726    0.8460   -0.2124 C.ar      1 MOL1       -0.0779
     23 C            4.1156    0.6504   -0.0601 C.ar      1 MOL1       -0.0515
     24 C            3.1840    1.8575   -0.0920 C.3       1 MOL1       -0.0191
     25 N            3.8282    3.1463    0.1887 N.3       1 MOL1       -0.6086
     26 O           -0.6189   -0.9056    0.8839 O.3       1 MOL1       -0.3363
     27 H           -0.8454    1.2101   -1.6147 H         1 MOL1        0.0671
     28  H          -7.2411   -0.8078   -0.2111 H         1 MOL1        0.0438
     29  H          -7.1870   -2.5750    0.6241 H         1 MOL1        0.0438
     30  H          -6.7172   -2.3708   -1.2632 H         1 MOL1        0.0438
     31  H          -4.2418   -3.5012   -0.6441 H         1 MOL1        0.0438
     32  H          -3.2102   -2.6114    0.7595 H         1 MOL1        0.0438
     33  H          -4.8220   -3.6204    1.2200 H         1 MOL1        0.0438
     34  H          -5.9143    0.0485    1.6238 H         1 MOL1        0.0492
     35  H          -4.0516   -0.7588    2.0481 H         1 MOL1        0.0492
     36  H          -6.0948    0.9476   -0.3112 H         1 MOL1        0.3291
     37  H          -4.1110    2.2759    0.0837 H         1 MOL1        0.0593
     38  H          -3.1807    1.7075    1.7347 H         1 MOL1        0.0593
     39  H          -2.2555    3.6382   -0.6770 H         1 MOL1        0.0474
     40  H          -2.0786    3.8894    1.2696 H         1 MOL1        0.0474
     41  H          -0.3124    2.1421    1.4095 H         1 MOL1        0.0479
     42  H           0.1308    3.0405   -0.2869 H         1 MOL1        0.0479
     43  H           1.9249   -2.0412   -0.2490 H         1 MOL1        0.0620
     44  H           1.9541   -1.1227    1.4697 H         1 MOL1        0.0620
     45  H           4.1640   -2.6252    0.2542 H         1 MOL1        0.0941
     46  H           7.3284   -0.0587   -0.2989 H         1 MOL1        0.0939
     47  H           5.8258    1.7731   -0.3379 H         1 MOL1        0.0908
     48  H           2.3168    1.6938    0.7214 H         1 MOL1        0.0594
     49  H           2.6787    1.9149   -1.1790 H         1 MOL1        0.0594
     50  H           4.6079    3.3408   -0.4512 H         1 MOL1        0.2740
     51  H           3.1543    3.9203    0.2262 H         1 MOL1        0.2740
     52  H          -1.5990   -0.7138    1.0017 H         1 MOL1        0.3296
@<TRIPOS>BOND
     1      1      2 1 
     2      2      3 1 
     3      2      4 1 
     4      4      5 1 
     5      5      2 1 
     6      5      6 1 
     7      5      7 1 
     8      7      8 2 
     9      7      9 am
    10      9     10 1 
    11     10     11 1 
    12     11     12 1 
    13     12     13 1 
    14     13      9 1 
    15     13     14 1 
    16     14     15 2 
    17     14     26 1 
    18     15     16 1 
    19     16     17 1 
    20     17     18 ar
    21     18     19 ar
    22     19     20 1 
    23     19     21 ar
    24     21     22 ar
    25     22     23 ar
    26     23     17 ar
    27     23     24 1 
    28     24     25 1 
    29      1     28 1 
    30      1     29 1 
    31      1     30 1 
    32      3     31 1 
    33      3     32 1 
    34      3     33 1 
    35      4     34 1 
    36      4     35 1 
    37      6     36 1 
    38     10     37 1 
    39     10     38 1 
    40     11     39 1 
    41     11     40 1 
    42     12     41 1 
    43     12     42 1 
    44     13     27 1 
    45     16     43 1 
    46     16     44 1 
    47     18     45 1 
    48     21     46 1 
    49     22     47 1 
    50     24     48 1 
    51     24     49 1 
    52     25     50 1 
    53     25     51 1 
    54     26     52 1 
@<TRIPOS>SUBSTRUCTURE
     1 MOL1         1 MOLECULE          1 A
