# Molecule written by the XED library from Cresset
@<TRIPOS>MOLECULE
CHEMBL48608
    35     37      1
SMALL
USER_CHARGES
@<TRIPOS>ATOM
      1 C           -4.5350   -2.9984    0.0002 C.3       1 MOL1       -0.0802
      2 C           -3.9697   -1.5930    0.0000 C.ar      1 MOL1       -0.0775
      3 C           -4.8045   -0.4987    0.0001 C.ar      1 MOL1       -0.0621
      4 C           -4.2744    0.7688    0.0000 C.ar      1 MOL1        0.0436
      5 Br          -5.4461    2.2428    0.0001 Br        1 MOL1       -0.0843
      6 C           -2.9024    0.9525    0.0000 C.ar      1 MOL1        0.0815
      7 O           -2.4000    2.2182   -0.0001 O.3       1 MOL1       -0.3746
      8 C           -2.0417   -0.1464   -0.0001 C.ar      1 MOL1       -0.0022
      9 C           -2.6089   -1.4135   -0.0001 C.ar      1 MOL1       -0.0795
     10 C           -0.5887   -0.0302   -0.0001 C.ar      1 MOL1        0.0621
     11 C            0.2994   -1.0445   -0.0003 C.ar      1 MOL1       -0.1486
     12 C            1.6082   -0.4841   -0.0001 C.ar      1 MOL1       -0.0394
     13 C            2.9005   -0.9927   -0.0002 C.ar      1 MOL1       -0.0593
     14 C            3.9763   -0.1217    0.0000 C.ar      1 MOL1       -0.0266
     15 C            3.7009    1.2653    0.0002 C.ar      1 MOL1       -0.0765
     16 C            2.4342    1.7757    0.0003 C.ar      1 MOL1       -0.0936
     17 C            1.3840    0.8714    0.0001 C.ar      1 MOL1        0.0666
     18 N            0.0576    1.1908    0.0001 N.pl3     1 MOL1       -0.1768
     19 C            5.4000   -0.6043    0.0000 C.2       1 MOL1        0.1473
     20 N            5.7077   -1.8755    0.0003 N.2       1 MOL1       -0.5935
     21 N            6.4118    0.2947   -0.0004 N.am      1 MOL1       -0.4220
     22 H           -0.2982    1.9940    0.0003 H         1 MOL1        0.2043
     23  H          -5.7354   -2.9759   -0.0001 H         1 MOL1        0.0465
     24  H          -4.1516   -3.5782   -0.9783 H         1 MOL1        0.0465
     25  H          -4.1515   -3.5783    0.9783 H         1 MOL1        0.0465
     26  H          -5.7962   -0.6263    0.0002 H         1 MOL1        0.0936
     27  H          -3.1328    2.9077   -0.0001 H         1 MOL1        0.3295
     28  H          -2.0173   -2.2179   -0.0001 H         1 MOL1        0.0912
     29  H           0.0847   -2.0203   -0.0005 H         1 MOL1        0.0923
     30  H           3.0273   -1.9807   -0.0005 H         1 MOL1        0.0914
     31  H           4.4588    1.9130    0.0005 H         1 MOL1        0.0910
     32  H           2.2710    2.7623    0.0005 H         1 MOL1        0.0919
     33  H           4.9237   -2.4862    0.0006 H         1 MOL1        0.2200
     34  H           6.2615    1.1585   -0.0008 H         1 MOL1        0.2753
     35  H           7.2425    0.0045   -0.0002 H         1 MOL1        0.2753
@<TRIPOS>BOND
     1      1      2 1 
     2      2      3 ar
     3      3      4 ar
     4      4      5 1 
     5      4      6 ar
     6      6      7 1 
     7      6      8 ar
     8      8      9 ar
     9      8     10 1 
    10      9      2 ar
    11     10     11 ar
    12     11     12 ar
    13     12     13 ar
    14     13     14 ar
    15     14     15 ar
    16     14     19 1 
    17     15     16 ar
    18     16     17 ar
    19     17     12 ar
    20     17     18 ar
    21     18     10 ar
    22     19     20 2 
    23     19     21 am
    24      1     23 1 
    25      1     24 1 
    26      1     25 1 
    27      3     26 1 
    28      7     27 1 
    29      9     28 1 
    30     11     29 1 
    31     13     30 1 
    32     15     31 1 
    33     16     32 1 
    34     18     22 1 
    35     20     33 1 
    36     21     34 1 
    37     21     35 1 
@<TRIPOS>SUBSTRUCTURE
     1 MOL1         1 MOLECULE          1 A
