# Molecule written by the XED library from Cresset
@<TRIPOS>MOLECULE
CHEMBL61442
    54     57      1
SMALL
USER_CHARGES
@<TRIPOS>ATOM
      1 C            5.0819    1.7255    1.1835 C.3       1 MOL1       -0.1160
      2 C            4.9793    0.2043    1.4278 C.3       1 MOL1       -0.0419
      3 C            6.2238   -0.5843    0.9608 C.3       1 MOL1       -0.0773
      4 C            5.9589   -1.5752   -0.2461 C.3       1 MOL1       -0.0440
      5 C            5.8519   -3.1258   -0.5392 C.3       1 MOL1       -0.1161
      6 C            7.4952   -1.9035   -0.0713 C.3       1 MOL1       -0.1161
      7 C            4.6047   -1.8388    0.5274 C.3       1 MOL1       -0.0565
      8 C            3.8404   -0.5210    0.7181 C.3       1 MOL1       -0.0038
      9 O            3.4188    0.0289   -0.5601 O.3       1 MOL1       -0.1951
     10 C            2.3755    0.8722   -0.5742 C.ar      1 MOL1        0.0699
     11 C            2.5879    2.1885   -0.9192 C.ar      1 MOL1       -0.0684
     12 C            1.5376    3.0776   -0.9435 C.ar      1 MOL1       -0.1008
     13 C            0.2697    2.6485   -0.6582 C.ar      1 MOL1       -0.0765
     14 C            0.0109    1.3186   -0.3431 C.ar      1 MOL1        0.0056
     15 C            1.0860    0.4323   -0.2857 C.ar      1 MOL1        0.0890
     16 O            0.8955   -0.8797    0.0326 O.3       1 MOL1       -0.3757
     17 C           -1.3662    0.9171   -0.1365 C.ar      1 MOL1        0.2149
     18 N           -1.8168   -0.3347   -0.0145 N.ar      1 MOL1       -0.4002
     19 C           -3.1924   -0.3009    0.0594 C.ar      1 MOL1        0.0180
     20 C           -4.1889   -1.2700    0.1410 C.ar      1 MOL1       -0.0467
     21 C           -5.5168   -0.8779    0.1368 C.ar      1 MOL1       -0.0007
     22 C           -6.5685   -1.9471    0.1766 C.2       1 MOL1        0.1496
     23 N           -7.7903   -1.7140    0.5731 N.2       1 MOL1       -0.5970
     24 N           -6.2480   -3.2036   -0.2064 N.am      1 MOL1       -0.4229
     25 C           -5.8111    0.5119    0.0692 C.ar      1 MOL1        0.1292
     26 F           -7.0690    0.9674    0.0440 F         1 MOL1       -0.1424
     27 C           -4.8318    1.4648    0.0054 C.ar      1 MOL1       -0.0725
     28 C           -3.5235    1.0183   -0.0034 C.ar      1 MOL1        0.0863
     29 N           -2.3933    1.7940   -0.1075 N.pl3     1 MOL1       -0.1593
     30 H            4.8385    0.0470    2.6090 H         1 MOL1        0.0506
     31 H            2.8972   -0.7043    1.4424 H         1 MOL1        0.0669
     32 H           -2.3617    2.6712   -0.1590 H         1 MOL1        0.2049
     33  H           5.9727    2.1830    1.8461 H         1 MOL1        0.0435
     34  H           4.0479    2.2492    1.4982 H         1 MOL1        0.0435
     35  H           5.3000    1.9428    0.0235 H         1 MOL1        0.0435
     36  H           6.7044   -1.0964    1.9413 H         1 MOL1        0.0468
     37  H           6.9247    0.3272    0.6064 H         1 MOL1        0.0468
     38  H           5.7379   -3.8344    0.4266 H         1 MOL1        0.0438
     39  H           4.9536   -3.3545   -1.3052 H         1 MOL1        0.0438
     40  H           6.7078   -3.6511   -1.1985 H         1 MOL1        0.0438
     41  H           7.9892   -2.1553   -1.1393 H         1 MOL1        0.0438
     42  H           8.2684   -1.0321    0.2223 H         1 MOL1        0.0438
     43  H           7.7381   -2.7793    0.7170 H         1 MOL1        0.0438
     44  H           4.7557   -2.3192    1.6228 H         1 MOL1        0.0487
     45  H           3.7467   -2.4906   -0.0084 H         1 MOL1        0.0487
     46  H           3.5080    2.5077   -1.1445 H         1 MOL1        0.0924
     47  H           1.6993    4.0364   -1.1764 H         1 MOL1        0.0906
     48  H          -0.4810    3.3062   -0.6891 H         1 MOL1        0.0910
     49  H          -0.0743   -1.0814    0.2046 H         1 MOL1        0.3295
     50  H          -3.9396   -2.2352    0.1905 H         1 MOL1        0.0923
     51  H          -7.9371   -0.7836    0.8892 H         1 MOL1        0.2200
     52  H          -5.4449   -3.3970   -0.5005 H         1 MOL1        0.2753
     53  H          -6.8572   -3.8383   -0.1630 H         1 MOL1        0.2753
     54  H          -5.0515    2.4389   -0.0453 H         1 MOL1        0.0944
@<TRIPOS>BOND
     1      1      2 1 
     2      2      3 1 
     3      3      4 1 
     4      4      5 1 
     5      4      6 1 
     6      4      7 1 
     7      7      8 1 
     8      8      2 1 
     9      8      9 1 
    10      9     10 1 
    11     10     11 ar
    12     11     12 ar
    13     12     13 ar
    14     13     14 ar
    15     14     15 ar
    16     14     17 1 
    17     15     10 ar
    18     15     16 1 
    19     17     18 ar
    20     18     19 ar
    21     19     20 ar
    22     20     21 ar
    23     21     22 1 
    24     21     25 ar
    25     22     23 2 
    26     22     24 am
    27     25     26 1 
    28     25     27 ar
    29     27     28 ar
    30     28     19 ar
    31     28     29 ar
    32     29     17 ar
    33      1     33 1 
    34      1     34 1 
    35      1     35 1 
    36      2     30 1 
    37      3     36 1 
    38      3     37 1 
    39      5     38 1 
    40      5     39 1 
    41      5     40 1 
    42      6     41 1 
    43      6     42 1 
    44      6     43 1 
    45      7     44 1 
    46      7     45 1 
    47      8     31 1 
    48     11     46 1 
    49     12     47 1 
    50     13     48 1 
    51     16     49 1 
    52     20     50 1 
    53     23     51 1 
    54     24     52 1 
    55     24     53 1 
    56     27     54 1 
    57     29     32 1 
@<TRIPOS>SUBSTRUCTURE
     1 MOL1         1 MOLECULE          1 A
