# Molecule written by the XED library from Cresset
@<TRIPOS>MOLECULE
CHEMBL321944
    40     42      1
SMALL
USER_CHARGES
@<TRIPOS>ATOM
      1 C           -0.7776   -4.1467    1.1308 C.3       1 MOL1       -0.0471
      2 O           -0.2774   -3.6518   -0.1243 O.3       1 MOL1       -0.2018
      3 C            0.6644   -2.6973   -0.1340 C.ar      1 MOL1        0.0620
      4 C            2.0108   -3.1145   -0.1584 C.ar      1 MOL1       -0.0704
      5 C            3.0408   -2.2433   -0.0878 C.ar      1 MOL1       -0.0899
      6 C            2.7516   -0.8799   -0.0027 C.ar      1 MOL1       -0.0212
      7 C            3.8038    0.0055    0.2938 C.ar      1 MOL1       -0.0836
      8 C            3.5770    1.3326    0.3492 C.ar      1 MOL1       -0.0709
      9 C            2.2977    1.8388    0.0310 C.ar      1 MOL1       -0.0113
     10 C            1.2718    0.9619   -0.2108 C.ar      1 MOL1       -0.0427
     11 C            1.4272   -0.4325   -0.1533 C.ar      1 MOL1       -0.0130
     12 C            0.3337   -1.3545   -0.1927 C.ar      1 MOL1       -0.0026
     13 C           -1.0731   -0.9261   -0.2460 C.ar      1 MOL1       -0.0445
     14 C           -2.1709   -1.4654   -0.9585 C.ar      1 MOL1       -0.0169
     15 N           -3.2866   -0.7589   -0.7198 N.2       1 MOL1       -0.2858
     16 N           -3.1757    0.2182    0.1112 N.pl3     1 MOL1        0.0556
     17 C           -1.7029    0.1024    0.3982 C.ar      1 MOL1        0.0522
     18 S           -3.9270    1.4019    0.5894 S.3       1 MOL1        0.4757
     19 O           -4.3073    0.1202    0.2775 O.2       1 MOL1       -0.3115
     20 O           -2.7944    2.3602    0.6175 O.2       1 MOL1       -0.3115
     21 C           -4.9822    2.2331   -0.5413 C.3       1 MOL1        0.0433
     22 C            2.0367    3.3057   -0.0563 C.2       1 MOL1        0.1515
     23 N            2.9996    4.1706   -0.2099 N.2       1 MOL1       -0.5852
     24 N            0.7609    3.7432    0.0272 N.am      1 MOL1       -0.4218
     25  H          -1.1337   -3.2702    1.8732 H         1 MOL1        0.0618
     26  H          -1.6298   -4.9620    0.8799 H         1 MOL1        0.0618
     27  H           0.1056   -4.7515    1.6568 H         1 MOL1        0.0618
     28  H           2.2188   -4.0902   -0.2094 H         1 MOL1        0.0924
     29  H           3.9878   -2.5691   -0.0639 H         1 MOL1        0.0910
     30  H           4.7216   -0.3476    0.4750 H         1 MOL1        0.0910
     31  H           4.3295    1.9457    0.5894 H         1 MOL1        0.0910
     32  H           0.3690    1.3241   -0.4288 H         1 MOL1        0.0914
     33  H          -2.1233   -2.2592   -1.5672 H         1 MOL1        0.1007
     34  H          -1.1759    0.7168    1.0282 H         1 MOL1        0.1016
     35  H          -6.0774    1.7293   -0.4995 H         1 MOL1        0.0588
     36  H          -4.5022    2.1612   -1.6428 H         1 MOL1        0.0588
     37  H          -5.0513    3.3914   -0.2723 H         1 MOL1        0.0588
     38  H           3.9038    3.7543   -0.3112 H         1 MOL1        0.2200
     39  H           0.1005    3.1938    0.2148 H         1 MOL1        0.2753
     40  H           0.5911    4.5965   -0.0910 H         1 MOL1        0.2753
@<TRIPOS>BOND
     1      1      2 1 
     2      2      3 1 
     3      3      4 ar
     4      4      5 ar
     5      5      6 ar
     6      6      7 ar
     7      7      8 ar
     8      8      9 ar
     9      9     10 ar
    10      9     22 1 
    11     10     11 ar
    12     11      6 ar
    13     11     12 ar
    14     12      3 ar
    15     12     13 1 
    16     13     14 ar
    17     14     15 ar
    18     15     16 ar
    19     16     17 ar
    20     16     18 1 
    21     17     13 ar
    22     18     19 2 
    23     18     20 2 
    24     18     21 1 
    25     22     23 2 
    26     22     24 am
    27      1     25 1 
    28      1     26 1 
    29      1     27 1 
    30      4     28 1 
    31      5     29 1 
    32      7     30 1 
    33      8     31 1 
    34     10     32 1 
    35     14     33 1 
    36     17     34 1 
    37     21     35 1 
    38     21     36 1 
    39     21     37 1 
    40     23     38 1 
    41     24     39 1 
    42     24     40 1 
@<TRIPOS>SUBSTRUCTURE
     1 MOL1         1 MOLECULE          1 A
