# Molecule written by the XED library from Cresset
@<TRIPOS>MOLECULE
CHEMBL150308
    49     51      1
SMALL
USER_CHARGES
@<TRIPOS>ATOM
      1 N           -8.8977    0.4194    0.0196 N.am      1 MOL1       -0.4216
      2 C           -7.9589   -0.5576   -0.0300 C.2       1 MOL1        0.1561
      3 N           -8.2756   -1.8216   -0.0793 N.2       1 MOL1       -0.5779
      4 C           -6.5101   -0.2189   -0.0356 C.ar      1 MOL1       -0.0026
      5 C           -6.0374    1.0532    0.2553 C.ar      1 MOL1       -0.0581
      6 C           -4.6939    1.3210    0.2358 C.ar      1 MOL1       -0.0722
      7 C           -3.7688    0.3337   -0.0692 C.ar      1 MOL1       -0.0127
      8 C           -2.3502    0.7550   -0.0854 C.2       1 MOL1       -0.0303
      9 C           -1.2652   -0.0502   -0.0152 C.2       1 MOL1       -0.0281
     10 C           -1.2486   -1.5435    0.2423 C.3       1 MOL1       -0.0449
     11 C            0.0262   -1.9661    0.9858 C.3       1 MOL1       -0.0814
     12 C            1.2618   -1.5391    0.1819 C.3       1 MOL1       -0.0449
     13 C            1.2682   -0.0393   -0.0289 C.2       1 MOL1       -0.0281
     14 C            2.3496    0.7726   -0.0614 C.2       1 MOL1       -0.0303
     15 C            3.7676    0.3504   -0.0542 C.ar      1 MOL1       -0.0127
     16 C            4.2391   -0.8784   -0.4957 C.ar      1 MOL1       -0.0722
     17 C            5.5827   -1.1562   -0.4807 C.ar      1 MOL1       -0.0581
     18 C            6.5062   -0.2199   -0.0327 C.ar      1 MOL1       -0.0026
     19 C            6.0302    1.0060    0.4108 C.ar      1 MOL1       -0.0581
     20 C            4.6886    1.2848    0.3938 C.ar      1 MOL1       -0.0722
     21 C            7.9655   -0.5307   -0.0297 C.2       1 MOL1        0.1561
     22 N            8.8547    0.4001   -0.2505 N.2       1 MOL1       -0.5779
     23 N            8.3612   -1.8009    0.2045 N.am      1 MOL1       -0.4216
     24 C           -0.0015    0.6638   -0.0361 C.2       1 MOL1        0.1793
     25 O           -0.0074    1.8867   -0.0845 O.2       1 MOL1       -0.3945
     26 C           -4.2400   -0.9383   -0.3665 C.ar      1 MOL1       -0.0722
     27 C           -5.5858   -1.2068   -0.3440 C.ar      1 MOL1       -0.0581
     28  H          -9.7529    0.2145    0.0432 H         1 MOL1        0.2753
     29  H          -8.6631    1.2660    0.0236 H         1 MOL1        0.2753
     30  H          -9.2653   -1.9655   -0.0710 H         1 MOL1        0.2200
     31  H          -6.6782    1.7853    0.4817 H         1 MOL1        0.0910
     32  H          -4.3754    2.2456    0.4434 H         1 MOL1        0.0910
     33  H          -2.1787    1.7279   -0.1558 H         1 MOL1        0.0912
     34  H          -2.1654   -1.8491    0.9526 H         1 MOL1        0.0492
     35  H          -1.3186   -2.1353   -0.7991 H         1 MOL1        0.0492
     36  H           0.0519   -1.4325    2.0601 H         1 MOL1        0.0465
     37  H           0.0308   -3.1571    1.1343 H         1 MOL1        0.0465
     38  H           2.2159   -1.8667    0.8299 H         1 MOL1        0.0492
     39  H           1.2736   -2.1031   -0.8775 H         1 MOL1        0.0492
     40  H           2.1761    1.7474   -0.0928 H         1 MOL1        0.0912
     41  H           3.5986   -1.5654   -0.8368 H         1 MOL1        0.0910
     42  H           5.9021   -2.0468   -0.8047 H         1 MOL1        0.0910
     43  H           6.6673    1.6982    0.7483 H         1 MOL1        0.0910
     44  H           4.3686    2.1780    0.7089 H         1 MOL1        0.0910
     45  H           8.4502    1.2940   -0.4396 H         1 MOL1        0.2200
     46  H           7.7712   -2.4309    0.3789 H         1 MOL1        0.2753
     47  H           9.2187   -1.9985    0.1881 H         1 MOL1        0.2753
     48  H          -3.5980   -1.6647   -0.6072 H         1 MOL1        0.0910
     49  H          -5.9072   -2.1291   -0.5586 H         1 MOL1        0.0910
@<TRIPOS>BOND
     1      1      2 am
     2      2      3 2 
     3      2      4 1 
     4      4      5 ar
     5      5      6 ar
     6      6      7 ar
     7      7      8 1 
     8      7     26 ar
     9      8      9 2 
    10      9     10 1 
    11      9     24 1 
    12     10     11 1 
    13     11     12 1 
    14     12     13 1 
    15     13     14 2 
    16     13     24 1 
    17     14     15 1 
    18     15     16 ar
    19     16     17 ar
    20     17     18 ar
    21     18     19 ar
    22     18     21 1 
    23     19     20 ar
    24     20     15 ar
    25     21     22 2 
    26     21     23 am
    27     24     25 2 
    28     26     27 ar
    29     27      4 ar
    30      1     28 1 
    31      1     29 1 
    32      3     30 1 
    33      5     31 1 
    34      6     32 1 
    35      8     33 1 
    36     10     34 1 
    37     10     35 1 
    38     11     36 1 
    39     11     37 1 
    40     12     38 1 
    41     12     39 1 
    42     14     40 1 
    43     16     41 1 
    44     17     42 1 
    45     19     43 1 
    46     20     44 1 
    47     22     45 1 
    48     23     46 1 
    49     23     47 1 
    50     26     48 1 
    51     27     49 1 
@<TRIPOS>SUBSTRUCTURE
     1 MOL1         1 MOLECULE          1 A
