# Molecule written by the XED library from Cresset
@<TRIPOS>MOLECULE
CHEMBL3912655
    52     54      1
SMALL
USER_CHARGES
@<TRIPOS>ATOM
      1 C           -5.1049    3.5542    0.3924 C.3       1 MOL1       -0.0663
      2 C           -4.5849    2.1324    0.4227 C.ar      1 MOL1        0.0052
      3 C           -5.2591    1.0572    0.8564 C.ar      1 MOL1       -0.1538
      4 C           -4.4090   -0.0508    0.6912 C.ar      1 MOL1       -0.1076
      5 C           -3.2605    0.4271    0.1648 C.ar      1 MOL1        0.0444
      6 N           -3.3554    1.8013    0.0019 N.pl3     1 MOL1       -0.1420
      7 C           -2.0174   -0.2782   -0.2199 C.2       1 MOL1        0.2978
      8 O           -1.0574    0.4776   -0.3388 O.2       1 MOL1       -0.4282
      9 N           -1.9370   -1.6165   -0.4476 N.am      1 MOL1       -0.4010
     10 C           -3.1069   -2.5129   -0.4024 C.3       1 MOL1        0.0729
     11 C           -2.6019   -3.7662   -1.1212 C.3       1 MOL1       -0.0682
     12 C           -1.1061   -3.7565   -0.7969 C.3       1 MOL1       -0.0546
     13 C           -0.6637   -2.2783   -0.8275 C.3       1 MOL1        0.1687
     14 C           -0.2329   -1.8932   -2.2570 C.3       1 MOL1       -0.0868
     15 C            0.5338   -1.9823    0.0619 C.2       1 MOL1        0.2591
     16 N            0.8276   -0.7792    0.4276 N.2       1 MOL1       -0.4050
     17 C            1.9958   -0.4810    1.2974 C.3       1 MOL1        0.0066
     18 C            3.0802    0.3551    0.6192 C.ar      1 MOL1       -0.0376
     19 C            4.3684   -0.1408    0.6194 C.ar      1 MOL1       -0.0578
     20 C            5.3982    0.5679    0.0342 C.ar      1 MOL1        0.0436
     21 Cl           7.0325   -0.0342    0.0343 Cl        1 MOL1       -0.1082
     22 C            5.1343    1.7774   -0.5627 C.ar      1 MOL1       -0.0637
     23 C            3.8544    2.2758   -0.5681 C.ar      1 MOL1       -0.0779
     24 C            2.8235    1.5800    0.0252 C.ar      1 MOL1       -0.0515
     25 C            1.4338    2.2029   -0.0282 C.3       1 MOL1       -0.0191
     26 N            1.3969    3.6486    0.2272 N.3       1 MOL1       -0.6086
     27 O            1.2578   -3.0852    0.3949 O.3       1 MOL1       -0.3359
     28 H           -2.7434    2.3440   -0.3212 H         1 MOL1        0.2042
     29  H          -6.3020    3.5419    0.3012 H         1 MOL1        0.0476
     30  H          -4.6438    4.1329   -0.5529 H         1 MOL1        0.0476
     31  H          -4.7892    4.1267    1.3986 H         1 MOL1        0.0476
     32  H          -6.1906    1.0449    1.2216 H         1 MOL1        0.0917
     33  H          -4.6182   -1.0022    0.9151 H         1 MOL1        0.0919
     34  H          -4.0555   -2.0658   -0.9846 H         1 MOL1        0.0593
     35  H          -3.3779   -2.7832    0.7351 H         1 MOL1        0.0593
     36  H          -3.1452   -4.7590   -0.7225 H         1 MOL1        0.0474
     37  H          -2.7717   -3.6484   -2.3029 H         1 MOL1        0.0474
     38  H          -0.4833   -4.4462   -1.5579 H         1 MOL1        0.0481
     39  H          -1.0020   -4.1718    0.3241 H         1 MOL1        0.0481
     40  H           0.6787   -2.5953   -2.6004 H         1 MOL1        0.0454
     41  H           0.1339   -0.7511   -2.2651 H         1 MOL1        0.0454
     42  H          -1.1442   -2.0256   -3.0229 H         1 MOL1        0.0454
     43  H           2.4510   -1.5053    1.7296 H         1 MOL1        0.0620
     44  H           1.5868    0.1588    2.2267 H         1 MOL1        0.0620
     45  H           4.5540   -1.0235    1.0514 H         1 MOL1        0.0941
     46  H           5.8738    2.2941   -0.9927 H         1 MOL1        0.0939
     47  H           3.6693    3.1555   -1.0055 H         1 MOL1        0.0908
     48  H           0.9690    1.9971   -1.1158 H         1 MOL1        0.0594
     49  H           0.7264    1.6968    0.7951 H         1 MOL1        0.0594
     50  H           0.4354    4.0085    0.2554 H         1 MOL1        0.2740
     51  H           1.9902    4.1844   -0.4174 H         1 MOL1        0.2740
     52  H           0.9669   -3.8983   -0.1216 H         1 MOL1        0.3296
@<TRIPOS>BOND
     1      1      2 1 
     2      2      3 ar
     3      3      4 ar
     4      4      5 ar
     5      5      6 ar
     6      5      7 1 
     7      6      2 ar
     8      7      8 2 
     9      7      9 am
    10      9     10 1 
    11     10     11 1 
    12     11     12 1 
    13     12     13 1 
    14     13      9 1 
    15     13     14 1 
    16     13     15 1 
    17     15     16 2 
    18     15     27 1 
    19     16     17 1 
    20     17     18 1 
    21     18     19 ar
    22     19     20 ar
    23     20     21 1 
    24     20     22 ar
    25     22     23 ar
    26     23     24 ar
    27     24     18 ar
    28     24     25 1 
    29     25     26 1 
    30      1     29 1 
    31      1     30 1 
    32      1     31 1 
    33      3     32 1 
    34      4     33 1 
    35      6     28 1 
    36     10     34 1 
    37     10     35 1 
    38     11     36 1 
    39     11     37 1 
    40     12     38 1 
    41     12     39 1 
    42     14     40 1 
    43     14     41 1 
    44     14     42 1 
    45     17     43 1 
    46     17     44 1 
    47     19     45 1 
    48     22     46 1 
    49     23     47 1 
    50     25     48 1 
    51     25     49 1 
    52     26     50 1 
    53     26     51 1 
    54     27     52 1 
@<TRIPOS>SUBSTRUCTURE
     1 MOL1         1 MOLECULE          1 A
