# Molecule written by the XED library from Cresset
@<TRIPOS>MOLECULE
CHEMBL111432
    41     43      1
SMALL
USER_CHARGES
@<TRIPOS>ATOM
      1 N           -7.7791    0.5588   -0.0008 N.am      1 MOL1       -0.4212
      2 C           -6.7920   -0.3706   -0.0010 C.2       1 MOL1        0.1553
      3 N           -7.0456   -1.6501   -0.0013 N.2       1 MOL1       -0.5812
      4 C           -5.3604    0.0397   -0.0008 C.ar      1 MOL1       -0.0044
      5 C           -4.9545    1.3940    0.0002 C.ar      1 MOL1       -0.0652
      6 C           -3.6462    1.7353    0.0005 C.ar      1 MOL1       -0.0773
      7 C           -2.6561    0.7364   -0.0001 C.ar      1 MOL1       -0.0112
      8 C           -1.2951    1.0668    0.0005 C.ar      1 MOL1       -0.0453
      9 C           -0.3274    0.0986   -0.0001 C.ar      1 MOL1        0.0086
     10 C           -0.7365   -1.2572   -0.0019 C.ar      1 MOL1       -0.0652
     11 C           -2.0444   -1.6022   -0.0024 C.ar      1 MOL1       -0.0757
     12 C           -3.0406   -0.6087   -0.0013 C.ar      1 MOL1       -0.0126
     13 C           -4.4039   -0.9361   -0.0016 C.ar      1 MOL1       -0.0411
     14 C            1.1027    0.5164    0.0010 C.2       1 MOL1        0.3240
     15 O            1.3068    1.7276   -0.0148 O.2       1 MOL1       -0.4094
     16 N            2.0943   -0.4089    0.0190 N.am      1 MOL1       -0.2240
     17 C            3.4856   -0.2016    0.0105 C.ar      1 MOL1        0.0697
     18 C            4.3396   -1.2916   -0.0039 C.ar      1 MOL1       -0.1027
     19 C            5.7030   -1.1156   -0.0113 C.ar      1 MOL1       -0.0806
     20 C            6.2401    0.1537   -0.0043 C.ar      1 MOL1       -0.0700
     21 C            7.7360    0.4107   -0.0122 C.3       1 MOL1        0.0064
     22 O            8.5165   -0.7951   -0.0007 O.3       1 MOL1       -0.4442
     23 C            5.3990    1.2431    0.0102 C.ar      1 MOL1       -0.0806
     24 C            4.0360    1.0702    0.0177 C.ar      1 MOL1       -0.1027
     25  H          -8.6235    0.3114   -0.0008 H         1 MOL1        0.2753
     26  H          -7.5875    1.4161   -0.0009 H         1 MOL1        0.2753
     27  H          -8.0270   -1.8430   -0.0014 H         1 MOL1        0.2200
     28  H          -5.6417    2.1185    0.0007 H         1 MOL1        0.0910
     29  H          -3.3821    2.6998    0.0012 H         1 MOL1        0.0910
     30  H          -1.0251    2.0297    0.0016 H         1 MOL1        0.0914
     31  H          -0.0507   -1.9829   -0.0030 H         1 MOL1        0.0910
     32  H          -2.3045   -2.5678   -0.0036 H         1 MOL1        0.0910
     33  H          -4.6802   -1.8973   -0.0024 H         1 MOL1        0.0914
     34  H           1.8431   -1.2504    0.0383 H         1 MOL1        0.2056
     35  H           3.9604   -2.2169   -0.0089 H         1 MOL1        0.0919
     36  H           6.3076   -1.9120   -0.0217 H         1 MOL1        0.0908
     37  H           8.0182    1.0619    0.9555 H         1 MOL1        0.0667
     38  H           8.0123    1.0404   -0.9955 H         1 MOL1        0.0667
     39  H           9.5020   -0.5929   -0.0056 H         1 MOL1        0.3291
     40  H           5.7827    2.1666    0.0153 H         1 MOL1        0.0908
     41  H           3.4421    1.8726    0.0287 H         1 MOL1        0.0919
@<TRIPOS>BOND
     1      1      2 am
     2      2      3 2 
     3      2      4 1 
     4      4      5 ar
     5      5      6 ar
     6      6      7 ar
     7      7      8 ar
     8      8      9 ar
     9      9     10 ar
    10      9     14 1 
    11     10     11 ar
    12     11     12 ar
    13     12      7 ar
    14     12     13 ar
    15     13      4 ar
    16     14     15 2 
    17     14     16 am
    18     16     17 1 
    19     17     18 ar
    20     18     19 ar
    21     19     20 ar
    22     20     21 1 
    23     20     23 ar
    24     21     22 1 
    25     23     24 ar
    26     24     17 ar
    27      1     25 1 
    28      1     26 1 
    29      3     27 1 
    30      5     28 1 
    31      6     29 1 
    32      8     30 1 
    33     10     31 1 
    34     11     32 1 
    35     13     33 1 
    36     16     34 1 
    37     18     35 1 
    38     19     36 1 
    39     21     37 1 
    40     21     38 1 
    41     22     39 1 
    42     23     40 1 
    43     24     41 1 
@<TRIPOS>SUBSTRUCTURE
     1 MOL1         1 MOLECULE          1 A
