# Molecule written by the XED library from Cresset
@<TRIPOS>MOLECULE
CHEMBL96433
    42     45      1
SMALL
USER_CHARGES
@<TRIPOS>ATOM
      1 N           -7.4418    1.2187   -0.0091 N.am      1 MOL1       -0.4220
      2 C           -6.5840    0.1688   -0.0167 C.2       1 MOL1        0.1473
      3 N           -7.0034   -1.0673   -0.0115 N.2       1 MOL1       -0.5935
      4 C           -5.1123    0.3855   -0.0278 C.ar      1 MOL1       -0.0267
      5 C           -4.5338    1.6717   -0.0296 C.ar      1 MOL1       -0.0765
      6 C           -3.1802    1.8531   -0.0326 C.ar      1 MOL1       -0.0936
      7 C           -2.3833    0.7163   -0.0327 C.ar      1 MOL1        0.0665
      8 N           -1.0197    0.7082   -0.0240 N.pl3     1 MOL1       -0.1768
      9 C           -0.6801   -0.6306   -0.0101 C.ar      1 MOL1        0.0619
     10 C           -1.7832   -1.4058   -0.0207 C.ar      1 MOL1       -0.1488
     11 C           -2.9223   -0.5501   -0.0326 C.ar      1 MOL1       -0.0394
     12 C           -4.2998   -0.7282   -0.0320 C.ar      1 MOL1       -0.0593
     13 C            0.7060   -1.0812    0.0354 C.ar      1 MOL1       -0.0050
     14 C            0.9596   -2.4343    0.1914 C.ar      1 MOL1       -0.0772
     15 C            2.2444   -2.9094    0.2673 C.ar      1 MOL1       -0.1042
     16 C            3.3036   -2.0392    0.1982 C.ar      1 MOL1       -0.0792
     17 C            3.1090   -0.6757    0.0394 C.ar      1 MOL1       -0.0153
     18 C            1.7941   -0.2122   -0.0607 C.ar      1 MOL1        0.0824
     19 O            1.5579    1.1103   -0.2725 O.3       1 MOL1       -0.3773
     20 C            4.2888    0.1895    0.0088 C.ar      1 MOL1       -0.0180
     21 C            5.5182   -0.2814   -0.4343 C.ar      1 MOL1       -0.0849
     22 C            6.6306    0.5255   -0.4451 C.ar      1 MOL1       -0.0897
     23 C            6.5432    1.8284   -0.0131 C.ar      1 MOL1       -0.0938
     24 C            5.3372    2.3180    0.4309 C.ar      1 MOL1       -0.0897
     25 C            4.2286    1.5064    0.4429 C.ar      1 MOL1       -0.0849
     26 H           -0.4843    1.4039   -0.0139 H         1 MOL1        0.2043
     27  H          -8.3112    1.0828   -0.0003 H         1 MOL1        0.2753
     28  H          -7.1408    2.0439   -0.0124 H         1 MOL1        0.2753
     29  H          -8.0015   -1.1301   -0.0028 H         1 MOL1        0.2200
     30  H          -5.1236    2.4774   -0.0273 H         1 MOL1        0.0910
     31  H          -2.7787    2.7690   -0.0322 H         1 MOL1        0.0919
     32  H          -1.8055   -2.4048   -0.0125 H         1 MOL1        0.0923
     33  H          -4.6948   -1.6469   -0.0304 H         1 MOL1        0.0914
     34  H           0.1985   -3.0779    0.2548 H         1 MOL1        0.0910
     35  H           2.4091   -3.8891    0.3813 H         1 MOL1        0.0906
     36  H           4.2314   -2.4015    0.2740 H         1 MOL1        0.0910
     37  H           2.2987    1.5378   -0.8009 H         1 MOL1        0.3295
     38  H           5.6016   -1.2235   -0.7559 H         1 MOL1        0.0910
     39  H           7.5056    0.1648   -0.7681 H         1 MOL1        0.0906
     40  H           7.3521    2.4163   -0.0210 H         1 MOL1        0.0906
     41  H           5.2674    3.2641    0.7471 H         1 MOL1        0.0906
     42  H           3.3606    1.8736    0.7763 H         1 MOL1        0.0910
@<TRIPOS>BOND
     1      1      2 am
     2      2      3 2 
     3      2      4 1 
     4      4      5 ar
     5      5      6 ar
     6      6      7 ar
     7      7      8 ar
     8      8      9 ar
     9      9     10 ar
    10      9     13 1 
    11     10     11 ar
    12     11      7 ar
    13     11     12 ar
    14     12      4 ar
    15     13     14 ar
    16     14     15 ar
    17     15     16 ar
    18     16     17 ar
    19     17     18 ar
    20     17     20 1 
    21     18     13 ar
    22     18     19 1 
    23     20     21 ar
    24     21     22 ar
    25     22     23 ar
    26     23     24 ar
    27     24     25 ar
    28     25     20 ar
    29      1     27 1 
    30      1     28 1 
    31      3     29 1 
    32      5     30 1 
    33      6     31 1 
    34      8     26 1 
    35     10     32 1 
    36     12     33 1 
    37     14     34 1 
    38     15     35 1 
    39     16     36 1 
    40     19     37 1 
    41     21     38 1 
    42     22     39 1 
    43     23     40 1 
    44     24     41 1 
    45     25     42 1 
@<TRIPOS>SUBSTRUCTURE
     1 MOL1         1 MOLECULE          1 A
