# Molecule written by the XED library from Cresset
@<TRIPOS>MOLECULE
CHEMBL94254
    31     33      1
SMALL
USER_CHARGES
@<TRIPOS>ATOM
      1 N           -6.1498   -0.0739    0.0001 N.am      1 MOL1       -0.4220
      2 C           -5.0085   -0.8063    0.0000 C.2       1 MOL1        0.1479
      3 N           -5.0249   -2.1113    0.0000 N.2       1 MOL1       -0.5921
      4 C           -3.6751   -0.1438    0.0000 C.ar      1 MOL1       -0.0232
      5 C           -3.5293    1.2625   -0.0001 C.ar      1 MOL1       -0.0740
      6 C           -2.3032    1.8659   -0.0001 C.ar      1 MOL1       -0.0908
      7 C           -1.2001    1.0258   -0.0001 C.ar      1 MOL1        0.0822
      8 N            0.1269    1.4041   -0.0001 N.pl3     1 MOL1       -0.1582
      9 C            0.8155    0.2452    0.0000 C.ar      1 MOL1        0.2200
     10 N           -0.0145   -0.8013    0.0000 N.ar      1 MOL1       -0.4001
     11 C           -1.3078   -0.3347    0.0000 C.ar      1 MOL1        0.0255
     12 C           -2.5575   -0.9502    0.0000 C.ar      1 MOL1       -0.0500
     13 C            2.2600    0.1708    0.0000 C.ar      1 MOL1        0.0082
     14 C            2.8350   -1.0913    0.0000 C.ar      1 MOL1       -0.0408
     15 C            4.1997   -1.2465    0.0000 C.ar      1 MOL1        0.0240
     16 Br           4.9503   -2.9704   -0.0001 Br        1 MOL1       -0.0889
     17 C            5.0210   -0.1385    0.0000 C.ar      1 MOL1       -0.0516
     18 C            4.4717    1.1200    0.0001 C.ar      1 MOL1       -0.0786
     19 C            3.1005    1.2841    0.0001 C.ar      1 MOL1        0.0815
     20 O            2.5858    2.5423    0.0000 O.3       1 MOL1       -0.3789
     21 H            0.4447    2.2236   -0.0002 H         1 MOL1        0.2049
     22  H          -6.9343   -0.4728    0.0003 H         1 MOL1        0.2753
     23  H          -6.1199    0.8040    0.0000 H         1 MOL1        0.2753
     24  H          -5.9547   -2.4798   -0.0002 H         1 MOL1        0.2200
     25  H          -4.3433    1.8406    0.0000 H         1 MOL1        0.0910
     26  H          -2.2067    2.8613   -0.0002 H         1 MOL1        0.0919
     27  H          -2.6411   -1.9467    0.0000 H         1 MOL1        0.0923
     28  H           2.2476   -1.9006   -0.0001 H         1 MOL1        0.0938
     29  H           6.0146   -0.2511    0.0000 H         1 MOL1        0.0934
     30  H           5.0682    1.9227    0.0002 H         1 MOL1        0.0924
     31  H           3.3116    3.2394    0.0002 H         1 MOL1        0.3295
@<TRIPOS>BOND
     1      1      2 am
     2      2      3 2 
     3      2      4 1 
     4      4      5 ar
     5      5      6 ar
     6      6      7 ar
     7      7      8 ar
     8      8      9 ar
     9      9     10 ar
    10      9     13 1 
    11     10     11 ar
    12     11      7 ar
    13     11     12 ar
    14     12      4 ar
    15     13     14 ar
    16     14     15 ar
    17     15     16 1 
    18     15     17 ar
    19     17     18 ar
    20     18     19 ar
    21     19     13 ar
    22     19     20 1 
    23      1     22 1 
    24      1     23 1 
    25      3     24 1 
    26      5     25 1 
    27      6     26 1 
    28      8     21 1 
    29     12     27 1 
    30     14     28 1 
    31     17     29 1 
    32     18     30 1 
    33     20     31 1 
@<TRIPOS>SUBSTRUCTURE
     1 MOL1         1 MOLECULE          1 A
