# Molecule written by the XED library from Cresset
@<TRIPOS>MOLECULE
CHEMBL330460
    45     47      1
SMALL
USER_CHARGES
@<TRIPOS>ATOM
      1 C           -7.3170    1.3603    0.5895 C.3       1 MOL1       -0.1068
      2 C           -5.8411    1.2386    0.1698 C.3       1 MOL1       -0.0469
      3 N           -5.1067   -0.0054   -0.1740 N.pl3     1 MOL1       -0.1395
      4 C           -5.7727   -1.3263   -0.0517 C.3       1 MOL1       -0.0469
      5 C           -7.2560   -1.5817   -0.3862 C.3       1 MOL1       -0.1068
      6 C           -3.6976    0.0471   -0.1358 C.ar      1 MOL1        0.0657
      7 C           -3.0262    1.2562   -0.2824 C.ar      1 MOL1       -0.1252
      8 C           -1.6593    1.3194   -0.2527 C.ar      1 MOL1       -0.0562
      9 C           -0.8875    0.1769   -0.0811 C.ar      1 MOL1       -0.0179
     10 C           -1.5530   -1.0416    0.0666 C.ar      1 MOL1        0.0827
     11 O           -0.8629   -2.2008    0.2398 O.3       1 MOL1       -0.3786
     12 C           -2.9299   -1.0940    0.0430 C.ar      1 MOL1       -0.1044
     13 C            0.5549    0.2630   -0.0609 C.ar      1 MOL1        0.2106
     14 N            1.3961   -0.7745   -0.0022 N.ar      1 MOL1       -0.4119
     15 C            2.6860   -0.2964   -0.0059 C.ar      1 MOL1        0.0236
     16 C            3.9399   -0.9024    0.0334 C.ar      1 MOL1       -0.0522
     17 C            5.0686   -0.1007    0.0107 C.ar      1 MOL1       -0.0238
     18 C            4.8891    1.3037   -0.0453 C.ar      1 MOL1       -0.0763
     19 C            3.6616    1.9028   -0.0820 C.ar      1 MOL1       -0.0912
     20 C            2.5649    1.0595   -0.0638 C.ar      1 MOL1        0.0797
     21 N            1.2357    1.4274   -0.1003 N.pl3     1 MOL1       -0.1611
     22 C            6.4601   -0.6706    0.0430 C.2       1 MOL1        0.1477
     23 N            6.6876   -1.9581    0.0248 N.2       1 MOL1       -0.5924
     24 N            7.5258    0.1628    0.0890 N.am      1 MOL1       -0.4220
     25 H            0.9130    2.2447   -0.1369 H         1 MOL1        0.2049
     26  H          -7.5546    2.5205    0.7841 H         1 MOL1        0.0444
     27  H          -8.0415    0.9762   -0.2855 H         1 MOL1        0.0444
     28  H          -7.5084    0.7579    1.6093 H         1 MOL1        0.0444
     29  H          -5.2486    1.7659    1.0711 H         1 MOL1        0.0568
     30  H          -5.7365    1.9496   -0.7911 H         1 MOL1        0.0568
     31  H          -5.2183   -2.0447   -0.8385 H         1 MOL1        0.0568
     32  H          -5.5620   -1.7515    1.0504 H         1 MOL1        0.0568
     33  H          -7.9684   -1.2119    0.5040 H         1 MOL1        0.0444
     34  H          -7.5430   -1.0416   -1.4185 H         1 MOL1        0.0444
     35  H          -7.4368   -2.7623   -0.5100 H         1 MOL1        0.0444
     36  H          -3.5499    2.0977   -0.4100 H         1 MOL1        0.0917
     37  H          -1.2126    2.2064   -0.3601 H         1 MOL1        0.0910
     38  H           0.1303   -2.0484    0.2391 H         1 MOL1        0.3295
     39  H          -3.3801   -1.9781    0.1592 H         1 MOL1        0.0935
     40  H           3.9991   -1.8960    0.0769 H         1 MOL1        0.0923
     41  H           5.6904    1.8968   -0.0607 H         1 MOL1        0.0910
     42  H           3.5613    2.8969   -0.1215 H         1 MOL1        0.0919
     43  H           5.8669   -2.5169   -0.0183 H         1 MOL1        0.2200
     44  H           7.4296    1.0338    0.1119 H         1 MOL1        0.2753
     45  H           8.3369   -0.1787    0.0970 H         1 MOL1        0.2753
@<TRIPOS>BOND
     1      1      2 1 
     2      2      3 1 
     3      3      4 1 
     4      3      6 1 
     5      4      5 1 
     6      6      7 ar
     7      7      8 ar
     8      8      9 ar
     9      9     10 ar
    10      9     13 1 
    11     10     11 1 
    12     10     12 ar
    13     12      6 ar
    14     13     14 ar
    15     14     15 ar
    16     15     16 ar
    17     16     17 ar
    18     17     18 ar
    19     17     22 1 
    20     18     19 ar
    21     19     20 ar
    22     20     15 ar
    23     20     21 ar
    24     21     13 ar
    25     22     23 2 
    26     22     24 am
    27      1     26 1 
    28      1     27 1 
    29      1     28 1 
    30      2     29 1 
    31      2     30 1 
    32      4     31 1 
    33      4     32 1 
    34      5     33 1 
    35      5     34 1 
    36      5     35 1 
    37      7     36 1 
    38      8     37 1 
    39     11     38 1 
    40     12     39 1 
    41     16     40 1 
    42     18     41 1 
    43     19     42 1 
    44     21     25 1 
    45     23     43 1 
    46     24     44 1 
    47     24     45 1 
@<TRIPOS>SUBSTRUCTURE
     1 MOL1         1 MOLECULE          1 A
