# Molecule written by the XED library from Cresset
@<TRIPOS>MOLECULE
CHEMBL319047
    44     47      1
SMALL
USER_CHARGES
@<TRIPOS>ATOM
      1 N           -6.4757    2.3621   -0.0015 N.am      1 MOL1       -0.4217
      2 C           -5.6624    1.2773   -0.0016 C.2       1 MOL1        0.1534
      3 N           -6.1313    0.0600   -0.0018 N.2       1 MOL1       -0.5828
      4 C           -4.1824    1.4360   -0.0013 C.ar      1 MOL1       -0.0071
      5 C           -3.5548    2.6971   -0.0006 C.ar      1 MOL1       -0.0652
      6 C           -2.2100    2.7861   -0.0001 C.ar      1 MOL1       -0.0798
      7 C           -1.4249    1.6187    0.0001 C.ar      1 MOL1       -0.0114
      8 C           -0.0394    1.7843    0.0008 C.ar      1 MOL1       -0.0574
      9 C            0.7940    0.7049    0.0012 C.ar      1 MOL1        0.0085
     10 C            0.2088   -0.5772    0.0007 C.ar      1 MOL1       -0.0694
     11 C           -1.1422   -0.8106    0.0000 C.ar      1 MOL1       -0.0029
     12 C           -1.5506   -2.2253    0.0002 C.ar      1 MOL1       -0.0476
     13 C           -0.7378   -3.3014   -0.0060 C.ar      1 MOL1        0.0034
     14 O           -1.3730   -4.4605   -0.0040 O.3       1 MOL1       -0.0806
     15 C           -2.6712   -4.1582    0.0040 C.ar      1 MOL1       -0.0236
     16 C           -2.8406   -2.8472    0.0071 C.ar      1 MOL1       -0.1152
     17 C           -2.0013    0.3360   -0.0005 C.ar      1 MOL1       -0.0081
     18 C           -3.4088    0.3090   -0.0017 C.ar      1 MOL1       -0.0399
     19 C            2.2656    0.9427    0.0022 C.2       1 MOL1        0.3243
     20 O            2.6161    2.1197   -0.0106 O.2       1 MOL1       -0.4093
     21 N            3.1395   -0.0941    0.0169 N.am      1 MOL1       -0.2239
     22 C            4.5460   -0.0501    0.0079 C.ar      1 MOL1        0.0696
     23 C            5.2664   -1.2326   -0.0032 C.ar      1 MOL1       -0.1033
     24 C            6.6408   -1.2177   -0.0112 C.ar      1 MOL1       -0.0879
     25 C            7.3174   -0.0191   -0.0084 C.ar      1 MOL1       -0.1196
     26 C            6.6151    1.1642    0.0027 C.ar      1 MOL1       -0.0879
     27 C            5.2410    1.1497    0.0110 C.ar      1 MOL1       -0.1033
     28  H          -7.3499    2.2630   -0.0015 H         1 MOL1        0.2753
     29  H          -6.1399    3.1739   -0.0014 H         1 MOL1        0.2753
     30  H          -7.1312    0.0382   -0.0019 H         1 MOL1        0.2200
     31  H          -4.1012    3.5329   -0.0004 H         1 MOL1        0.0910
     32  H          -1.7702    3.6843    0.0003 H         1 MOL1        0.0910
     33  H           0.3487    2.7062    0.0011 H         1 MOL1        0.0914
     34  H           0.8238   -1.3589    0.0007 H         1 MOL1        0.0914
     35  H           0.2584   -3.2438   -0.0117 H         1 MOL1        0.1044
     36  H          -3.4129   -4.8289    0.0073 H         1 MOL1        0.1040
     37  H          -3.7263   -2.3964    0.0135 H         1 MOL1        0.0924
     38  H          -3.8785   -0.5617   -0.0029 H         1 MOL1        0.0914
     39  H           2.7909   -0.9002    0.0346 H         1 MOL1        0.2056
     40  H           4.7815   -2.1072   -0.0052 H         1 MOL1        0.0919
     41  H           7.1499   -2.0784   -0.0191 H         1 MOL1        0.0906
     42  H           8.3173   -0.0080   -0.0142 H         1 MOL1        0.0906
     43  H           7.1052    2.0359    0.0049 H         1 MOL1        0.0906
     44  H           4.7444    2.0156    0.0194 H         1 MOL1        0.0919
@<TRIPOS>BOND
     1      1      2 am
     2      2      3 2 
     3      2      4 1 
     4      4      5 ar
     5      5      6 ar
     6      6      7 ar
     7      7      8 ar
     8      8      9 ar
     9      9     10 ar
    10      9     19 1 
    11     10     11 ar
    12     11     12 1 
    13     11     17 ar
    14     12     13 ar
    15     13     14 ar
    16     14     15 ar
    17     15     16 ar
    18     16     12 ar
    19     17      7 ar
    20     17     18 ar
    21     18      4 ar
    22     19     20 2 
    23     19     21 am
    24     21     22 1 
    25     22     23 ar
    26     23     24 ar
    27     24     25 ar
    28     25     26 ar
    29     26     27 ar
    30     27     22 ar
    31      1     28 1 
    32      1     29 1 
    33      3     30 1 
    34      5     31 1 
    35      6     32 1 
    36      8     33 1 
    37     10     34 1 
    38     13     35 1 
    39     15     36 1 
    40     16     37 1 
    41     18     38 1 
    42     21     39 1 
    43     23     40 1 
    44     24     41 1 
    45     25     42 1 
    46     26     43 1 
    47     27     44 1 
@<TRIPOS>SUBSTRUCTURE
     1 MOL1         1 MOLECULE          1 A
