# Molecule written by the XED library from Cresset
@<TRIPOS>MOLECULE
CHEMBL596780
    44     45      1
SMALL
USER_CHARGES
@<TRIPOS>ATOM
      1 C           -1.1644    4.5061   -0.1706 C.3       1 MOL1       -0.1215
      2 C           -0.8282    3.0133   -0.0216 C.3       1 MOL1       -0.0677
      3 C           -2.0401    2.1235   -0.3748 C.3       1 MOL1        0.0318
      4 N           -3.0208    2.3438    0.6969 N.3       1 MOL1       -0.5866
      5 C           -1.5438    0.7048   -0.6411 C.2       1 MOL1        0.2918
      6 O           -0.4191    0.5204   -1.0872 O.2       1 MOL1       -0.4176
      7 N           -2.4068   -0.3030   -0.3818 N.am      1 MOL1       -0.3905
      8 C           -3.8017   -0.1572    0.0762 C.3       1 MOL1        0.0725
      9 C           -4.3411   -1.5947    0.0773 C.3       1 MOL1       -0.0686
     10 C           -3.0874   -2.4565    0.2265 C.3       1 MOL1       -0.0562
     11 C           -2.0371   -1.7133   -0.6140 C.3       1 MOL1        0.1603
     12 C           -0.6447   -2.1957   -0.2610 C.2       1 MOL1        0.3241
     13 O           -0.1668   -3.1930   -0.7820 O.2       1 MOL1       -0.4176
     14 N           -0.0298   -1.4336    0.6575 N.am      1 MOL1       -0.3832
     15 C            1.2836   -1.8381    1.1843 C.3       1 MOL1        0.1148
     16 C            2.4561   -1.0128    0.6767 C.ar      1 MOL1       -0.0376
     17 C            3.6351   -1.6567    0.3702 C.ar      1 MOL1       -0.0898
     18 C            4.7277   -0.9437   -0.0684 C.ar      1 MOL1       -0.0836
     19 C            4.6493    0.4232   -0.1988 C.ar      1 MOL1       -0.0642
     20 C            3.4750    1.0740    0.1073 C.ar      1 MOL1        0.0434
     21 Cl           3.3703    2.8027   -0.0595 Cl        1 MOL1       -0.1082
     22 C            2.3824    0.3570    0.5435 C.ar      1 MOL1       -0.0581
     23 H           -2.4998    2.5441   -1.3990 H         1 MOL1        0.0651
     24 H           -2.2407   -1.9607   -1.7696 H         1 MOL1        0.0678
     25  H          -2.1257    4.7612    0.5001 H         1 MOL1        0.0433
     26  H          -0.2321    5.1679    0.1967 H         1 MOL1        0.0433
     27  H          -1.3975    4.7578   -1.3205 H         1 MOL1        0.0433
     28  H          -0.5097    2.7852    1.1123 H         1 MOL1        0.0474
     29  H           0.0966    2.7763   -0.7479 H         1 MOL1        0.0474
     30  H          -2.7242    1.9421    1.5933 H         1 MOL1        0.2741
     31  H          -3.9710    2.0579    0.4371 H         1 MOL1        0.2741
     32  H          -3.8134    0.2443    1.2068 H         1 MOL1        0.0593
     33  H          -4.4564    0.5334   -0.6553 H         1 MOL1        0.0593
     34  H          -5.1203   -1.7772    0.9718 H         1 MOL1        0.0474
     35  H          -4.8609   -1.8251   -0.9793 H         1 MOL1        0.0474
     36  H          -2.7422   -2.4659    1.3758 H         1 MOL1        0.0479
     37  H          -3.2612   -3.5790   -0.1616 H         1 MOL1        0.0479
     38  H          -0.4125   -0.7018    0.9593 H         1 MOL1        0.2040
     39  H           1.2582   -1.7356    2.3791 H         1 MOL1        0.0620
     40  H           1.4644   -2.9954    0.9215 H         1 MOL1        0.0620
     41  H           3.6988   -2.6493    0.4708 H         1 MOL1        0.0908
     42  H           5.5789   -1.4193   -0.2904 H         1 MOL1        0.0906
     43  H           5.4427    0.9426   -0.5158 H         1 MOL1        0.0939
     44  H           1.5323    0.8338    0.7664 H         1 MOL1        0.0941
@<TRIPOS>BOND
     1      1      2 1 
     2      2      3 1 
     3      3      4 1 
     4      3      5 1 
     5      5      6 2 
     6      5      7 am
     7      7      8 1 
     8      8      9 1 
     9      9     10 1 
    10     10     11 1 
    11     11      7 1 
    12     11     12 1 
    13     12     13 2 
    14     12     14 am
    15     14     15 1 
    16     15     16 1 
    17     16     17 ar
    18     17     18 ar
    19     18     19 ar
    20     19     20 ar
    21     20     21 1 
    22     20     22 ar
    23     22     16 ar
    24      1     25 1 
    25      1     26 1 
    26      1     27 1 
    27      2     28 1 
    28      2     29 1 
    29      3     23 1 
    30      4     30 1 
    31      4     31 1 
    32      8     32 1 
    33      8     33 1 
    34      9     34 1 
    35      9     35 1 
    36     10     36 1 
    37     10     37 1 
    38     11     24 1 
    39     14     38 1 
    40     15     39 1 
    41     15     40 1 
    42     17     41 1 
    43     18     42 1 
    44     19     43 1 
    45     22     44 1 
@<TRIPOS>SUBSTRUCTURE
     1 MOL1         1 MOLECULE          1 A
