# Molecule written by the XED library from Cresset
@<TRIPOS>MOLECULE
CHEMBL3892429
    50     53      1
SMALL
USER_CHARGES
@<TRIPOS>ATOM
      1 N           -4.7323   -3.2177    0.1259 N.3       1 MOL1       -0.6086
      2 C           -4.1055   -1.9185    0.3919 C.3       1 MOL1       -0.0191
      3 C           -5.0319   -0.7148    0.2662 C.ar      1 MOL1       -0.0515
      4 C           -6.3775   -0.9011    0.0267 C.ar      1 MOL1       -0.0779
      5 C           -7.2265    0.1733   -0.0866 C.ar      1 MOL1       -0.0637
      6 C           -6.7341    1.4509    0.0404 C.ar      1 MOL1        0.0436
      7 Cl          -7.8111    2.8088   -0.1032 Cl        1 MOL1       -0.1082
      8 C           -5.3922    1.6440    0.2818 C.ar      1 MOL1       -0.0578
      9 C           -4.5350    0.5705    0.3931 C.ar      1 MOL1       -0.0376
     10 C           -3.0661    0.8762    0.6638 C.3       1 MOL1        0.0066
     11 N           -2.1721    0.0835   -0.2128 N.2       1 MOL1       -0.4054
     12 C           -0.8954    0.2548   -0.2123 C.2       1 MOL1        0.2557
     13 O           -0.2137    1.1479    0.5465 O.3       1 MOL1       -0.3363
     14 C            0.0055   -0.5494   -1.1135 C.3       1 MOL1        0.1469
     15 C           -0.0219   -2.0536   -0.7862 C.3       1 MOL1       -0.0116
     16 C            1.4793   -2.2514   -0.5082 C.3       1 MOL1        0.0602
     17 N            1.3901   -0.8003   -0.7040 N.am      1 MOL1       -0.3931
     18 C            2.3749    0.1146   -0.6259 C.2       1 MOL1        0.3101
     19 O            2.1848    1.3238   -0.6149 O.2       1 MOL1       -0.4154
     20 C            3.7664   -0.4974   -0.6229 C.3       1 MOL1        0.1200
     21 O            3.9769   -1.5020    0.3927 O.3       1 MOL1       -0.2344
     22 C            5.3878   -1.6628    0.6481 C.3       1 MOL1        0.0193
     23 C            5.8782   -0.2605    0.3810 C.ar      1 MOL1       -0.0356
     24 C            7.0606    0.3331    0.7554 C.ar      1 MOL1       -0.0827
     25 C            7.2823    1.6458    0.3982 C.ar      1 MOL1       -0.0900
     26 C            6.3344    2.3427   -0.3235 C.ar      1 MOL1       -0.0899
     27 C            5.1548    1.7357   -0.6980 C.ar      1 MOL1       -0.0816
     28 C            4.9379    0.4248   -0.3383 C.ar      1 MOL1       -0.0240
     29 H           -0.1000   -0.3202   -2.2867 H         1 MOL1        0.0675
     30  H          -5.5453   -3.3882    0.7292 H         1 MOL1        0.2740
     31  H          -4.0567   -3.9911    0.1509 H         1 MOL1        0.2740
     32  H          -3.6457   -1.9321    1.5009 H         1 MOL1        0.0594
     33  H          -3.2143   -1.7860   -0.3999 H         1 MOL1        0.0594
     34  H          -6.7404   -1.8284   -0.0660 H         1 MOL1        0.0908
     35  H          -8.1999    0.0254   -0.2599 H         1 MOL1        0.0939
     36  H          -5.0362    2.5733    0.3782 H         1 MOL1        0.0941
     37  H          -2.8417    2.0389    0.4626 H         1 MOL1        0.0620
     38  H          -2.8166    0.6179    1.8086 H         1 MOL1        0.0620
     39  H          -0.8333    1.6768    1.1369 H         1 MOL1        0.3296
     40  H          -0.4155   -2.7101   -1.7107 H         1 MOL1        0.0522
     41  H          -0.6600   -2.2611    0.2089 H         1 MOL1        0.0522
     42  H           2.0726   -2.8215   -1.3810 H         1 MOL1        0.0597
     43  H           1.7400   -2.5797    0.6166 H         1 MOL1        0.0597
     44  H           3.9533   -1.0003   -1.6967 H         1 MOL1        0.0751
     45  H           5.8748   -2.4175   -0.1474 H         1 MOL1        0.0669
     46  H           5.6020   -2.0190    1.7742 H         1 MOL1        0.0669
     47  H           7.7455   -0.1764    1.2774 H         1 MOL1        0.0908
     48  H           8.1351    2.0961    0.6635 H         1 MOL1        0.0906
     49  H           6.5055    3.2948   -0.5785 H         1 MOL1        0.0906
     50  H           4.4686    2.2392   -1.2240 H         1 MOL1        0.0908
@<TRIPOS>BOND
     1      1      2 1 
     2      2      3 1 
     3      3      4 ar
     4      4      5 ar
     5      5      6 ar
     6      6      7 1 
     7      6      8 ar
     8      8      9 ar
     9      9      3 ar
    10      9     10 1 
    11     10     11 1 
    12     11     12 2 
    13     12     13 1 
    14     12     14 1 
    15     14     15 1 
    16     15     16 1 
    17     16     17 1 
    18     17     14 1 
    19     17     18 am
    20     18     19 2 
    21     18     20 1 
    22     20     21 1 
    23     21     22 1 
    24     22     23 1 
    25     23     24 ar
    26     24     25 ar
    27     25     26 ar
    28     26     27 ar
    29     27     28 ar
    30     28     20 1 
    31     28     23 ar
    32      1     30 1 
    33      1     31 1 
    34      2     32 1 
    35      2     33 1 
    36      4     34 1 
    37      5     35 1 
    38      8     36 1 
    39     10     37 1 
    40     10     38 1 
    41     13     39 1 
    42     14     29 1 
    43     15     40 1 
    44     15     41 1 
    45     16     42 1 
    46     16     43 1 
    47     20     44 1 
    48     22     45 1 
    49     22     46 1 
    50     24     47 1 
    51     25     48 1 
    52     26     49 1 
    53     27     50 1 
@<TRIPOS>SUBSTRUCTURE
     1 MOL1         1 MOLECULE          1 A
