# Molecule written by the XED library from Cresset
@<TRIPOS>MOLECULE
CHEMBL3613791
    53     57      1
SMALL
USER_CHARGES
@<TRIPOS>ATOM
      1 N           -6.1289    3.1762   -0.5917 N.am      1 MOL1       -0.4206
      2 C           -6.1249    1.8520   -0.3035 C.2       1 MOL1        0.1549
      3 N           -7.2159    1.1379   -0.2741 N.2       1 MOL1       -0.5838
      4 C           -4.8478    1.1626    0.0153 C.ar      1 MOL1       -0.0078
      5 C           -3.6137    1.6314   -0.4072 C.ar      1 MOL1       -0.0574
      6 C           -2.4577    0.9617   -0.0806 C.ar      1 MOL1       -0.0826
      7 C           -2.4977   -0.1828    0.6865 C.ar      1 MOL1       -0.0298
      8 C           -3.7295   -0.6532    1.0950 C.ar      1 MOL1       -0.0826
      9 C           -4.8888    0.0008    0.7630 C.ar      1 MOL1       -0.0574
     10 C           -1.2770   -0.9910    1.1464 C.3       1 MOL1        0.0359
     11 C            0.1839   -0.4479    1.3085 C.3       1 MOL1        0.0415
     12 C            1.0899   -1.6436    0.9240 C.3       1 MOL1        0.0377
     13 C            0.2124   -2.3531   -0.1070 C.3       1 MOL1       -0.0060
     14 C            0.2486   -3.8642   -0.3459 C.3       1 MOL1       -0.0702
     15 C           -1.2379   -4.1633   -0.6750 C.3       1 MOL1       -0.0744
     16 C           -2.0558   -2.9464   -0.1759 C.3       1 MOL1       -0.0456
     17 N           -1.0104   -2.3553    0.6572 N.3       1 MOL1       -0.2407
     18 C            2.2506   -1.0185    0.2082 C.2       1 MOL1        0.3086
     19 O            3.3004   -1.5798   -0.0567 O.2       1 MOL1       -0.4103
     20 N            1.9207    0.2464   -0.0982 N.am      1 MOL1       -0.2003
     21 C            2.7316    1.0982   -0.9882 C.3       1 MOL1        0.1205
     22 C            4.1776    1.2735   -0.5490 C.ar      1 MOL1       -0.0422
     23 C            5.1710    0.5195   -1.1348 C.ar      1 MOL1       -0.0840
     24 C            6.4826    0.6738   -0.7476 C.ar      1 MOL1       -0.0900
     25 C            6.8076    1.5879    0.2277 C.ar      1 MOL1       -0.0906
     26 C            5.8201    2.3463    0.8134 C.ar      1 MOL1       -0.0900
     27 C            4.5085    2.1887    0.4262 C.ar      1 MOL1       -0.0840
     28 C            0.7520    0.6569    0.4323 C.2       1 MOL1        0.3095
     29 O            0.2768    1.7686    0.2740 O.2       1 MOL1       -0.4103
     30  H          -6.8794    3.5830   -0.8033 H         1 MOL1        0.2753
     31  H          -5.3825    3.6423   -0.5618 H         1 MOL1        0.2753
     32  H          -8.0293    1.6773   -0.4939 H         1 MOL1        0.2200
     33  H          -3.5607    2.4648   -0.9567 H         1 MOL1        0.0910
     34  H          -1.5803    1.3137   -0.3984 H         1 MOL1        0.0908
     35  H          -3.7769   -1.4874    1.6443 H         1 MOL1        0.0908
     36  H          -5.7697   -0.3606    1.0690 H         1 MOL1        0.0910
     37  H          -1.5888   -1.2308    2.2812 H         1 MOL1        0.0627
     38  H           0.3996   -0.1350    2.4476 H         1 MOL1        0.0573
     39  H           1.3800   -2.3319    1.8632 H         1 MOL1        0.0571
     40  H           0.0901   -1.7173   -1.1176 H         1 MOL1        0.0598
     41  H           0.5726   -4.4125    0.6713 H         1 MOL1        0.0474
     42  H           0.9850   -4.1585   -1.2462 H         1 MOL1        0.0474
     43  H          -1.5937   -5.1602   -0.1112 H         1 MOL1        0.0471
     44  H          -1.3788   -4.2982   -1.8586 H         1 MOL1        0.0471
     45  H          -2.3282   -2.2151   -1.0887 H         1 MOL1        0.0568
     46  H          -3.0294   -3.2579    0.4534 H         1 MOL1        0.0568
     47  H           2.7066    0.6088   -2.0840 H         1 MOL1        0.0624
     48  H           2.2161    2.1802   -1.0564 H         1 MOL1        0.0624
     49  H           4.9366   -0.1444   -1.8448 H         1 MOL1        0.0908
     50  H           7.1988    0.1224   -1.1752 H         1 MOL1        0.0906
     51  H           7.7603    1.7010    0.5104 H         1 MOL1        0.0906
     52  H           6.0565    3.0118    1.5214 H         1 MOL1        0.0906
     53  H           3.7936    2.7425    0.8533 H         1 MOL1        0.0908
@<TRIPOS>BOND
     1      1      2 am
     2      2      3 2 
     3      2      4 1 
     4      4      5 ar
     5      5      6 ar
     6      6      7 ar
     7      7      8 ar
     8      7     10 1 
     9      8      9 ar
    10      9      4 ar
    11     10     11 1 
    12     11     12 1 
    13     12     13 1 
    14     12     18 1 
    15     13     14 1 
    16     14     15 1 
    17     15     16 1 
    18     16     17 1 
    19     17     10 1 
    20     17     13 1 
    21     18     19 2 
    22     18     20 am
    23     20     21 1 
    24     20     28 am
    25     21     22 1 
    26     22     23 ar
    27     23     24 ar
    28     24     25 ar
    29     25     26 ar
    30     26     27 ar
    31     27     22 ar
    32     28     11 1 
    33     28     29 2 
    34      1     30 1 
    35      1     31 1 
    36      3     32 1 
    37      5     33 1 
    38      6     34 1 
    39      8     35 1 
    40      9     36 1 
    41     10     37 1 
    42     11     38 1 
    43     12     39 1 
    44     13     40 1 
    45     14     41 1 
    46     14     42 1 
    47     15     43 1 
    48     15     44 1 
    49     16     45 1 
    50     16     46 1 
    51     21     47 1 
    52     21     48 1 
    53     23     49 1 
    54     24     50 1 
    55     25     51 1 
    56     26     52 1 
    57     27     53 1 
@<TRIPOS>SUBSTRUCTURE
     1 MOL1         1 MOLECULE          1 A
