# Molecule written by the XED library from Cresset
@<TRIPOS>MOLECULE
CHEMBL48233
    52     54      1
SMALL
USER_CHARGES
@<TRIPOS>ATOM
      1 N            8.7287   -1.1418   -0.1076 N.am      1 MOL1       -0.4216
      2 C            8.0746    0.0406   -0.0064 C.2       1 MOL1        0.1561
      3 N            8.7026    1.1764    0.1274 N.2       1 MOL1       -0.5779
      4 C            6.5892    0.0830   -0.0385 C.ar      1 MOL1       -0.0026
      5 C            5.8055   -0.9904   -0.4390 C.ar      1 MOL1       -0.0581
      6 C            4.4377   -0.8959   -0.4607 C.ar      1 MOL1       -0.0722
      7 C            3.7932    0.2716   -0.0688 C.ar      1 MOL1       -0.0127
      8 C            2.3322    0.5359   -0.0504 C.2       1 MOL1       -0.0303
      9 C            1.3086   -0.3590   -0.0231 C.2       1 MOL1       -0.0280
     10 C            1.6397   -1.8359    0.0947 C.3       1 MOL1       -0.0457
     11 C            0.5459   -2.7815    0.5859 C.3       1 MOL1       -0.0863
     12 C           -0.5860   -2.7793   -0.4470 C.3       1 MOL1       -0.0863
     13 C           -1.6685   -1.8145    0.0279 C.3       1 MOL1       -0.0457
     14 C           -1.3084   -0.3409    0.0627 C.2       1 MOL1       -0.0280
     15 C           -2.3219    0.5634    0.0214 C.2       1 MOL1       -0.0303
     16 C           -3.7846    0.3087    0.0534 C.ar      1 MOL1       -0.0127
     17 C           -4.5702    1.3201   -0.4813 C.ar      1 MOL1       -0.0722
     18 C           -5.9375    1.2251   -0.4992 C.ar      1 MOL1       -0.0581
     19 C           -6.5767    0.1079    0.0173 C.ar      1 MOL1       -0.0026
     20 C           -5.7980   -0.8990    0.5690 C.ar      1 MOL1       -0.0581
     21 C           -4.4305   -0.7977    0.5940 C.ar      1 MOL1       -0.0722
     22 C           -8.0636    0.0174   -0.0095 C.2       1 MOL1        0.1561
     23 N           -8.6647   -1.1212   -0.2264 N.2       1 MOL1       -0.5779
     24 N           -8.7819    1.1439    0.1919 N.am      1 MOL1       -0.4216
     25 C            0.0044    0.2992    0.0035 C.2       1 MOL1        0.1799
     26 O            0.0124    1.5232   -0.0252 O.2       1 MOL1       -0.3945
     27 C            4.5845    1.3443    0.3182 C.ar      1 MOL1       -0.0722
     28 C            5.9508    1.2545    0.3344 C.ar      1 MOL1       -0.0581
     29  H           9.6076   -1.1660   -0.1080 H         1 MOL1        0.2753
     30  H           8.2808   -1.8964   -0.1690 H         1 MOL1        0.2753
     31  H           9.6952    1.0622    0.1396 H         1 MOL1        0.2200
     32  H           6.2385   -1.8442   -0.7247 H         1 MOL1        0.0910
     33  H           3.9089   -1.6809   -0.7701 H         1 MOL1        0.0910
     34  H           2.0789    1.4912   -0.0515 H         1 MOL1        0.0912
     35  H           2.5469   -1.9836    0.8649 H         1 MOL1        0.0492
     36  H           1.9647   -2.2266   -0.9913 H         1 MOL1        0.0492
     37  H           0.1947   -2.4662    1.6898 H         1 MOL1        0.0463
     38  H           1.0231   -3.8836    0.6425 H         1 MOL1        0.0463
     39  H          -1.0809   -3.8707   -0.4940 H         1 MOL1        0.0463
     40  H          -0.2215   -2.4828   -1.5520 H         1 MOL1        0.0463
     41  H          -2.5874   -1.9858   -0.7259 H         1 MOL1        0.0492
     42  H          -1.9828   -2.1603    1.1328 H         1 MOL1        0.0492
     43  H          -2.0591    1.5141   -0.0435 H         1 MOL1        0.0912
     44  H          -4.1294    2.1347   -0.8587 H         1 MOL1        0.0910
     45  H          -6.4804    1.9695   -0.8889 H         1 MOL1        0.0910
     46  H          -6.2353   -1.7064    0.9634 H         1 MOL1        0.0910
     47  H          -3.9022   -1.5318    1.0125 H         1 MOL1        0.0910
     48  H          -8.0278   -1.8754   -0.3835 H         1 MOL1        0.2200
     49  H          -8.3787    1.9090    0.3613 H         1 MOL1        0.2753
     50  H          -9.6600    1.1129    0.1578 H         1 MOL1        0.2753
     51  H           4.1464    2.2014    0.5892 H         1 MOL1        0.0910
     52  H           6.4948    2.0449    0.6169 H         1 MOL1        0.0910
@<TRIPOS>BOND
     1      1      2 am
     2      2      3 2 
     3      2      4 1 
     4      4      5 ar
     5      5      6 ar
     6      6      7 ar
     7      7      8 1 
     8      7     27 ar
     9      8      9 2 
    10      9     10 1 
    11      9     25 1 
    12     10     11 1 
    13     11     12 1 
    14     12     13 1 
    15     13     14 1 
    16     14     15 2 
    17     14     25 1 
    18     15     16 1 
    19     16     17 ar
    20     17     18 ar
    21     18     19 ar
    22     19     20 ar
    23     19     22 1 
    24     20     21 ar
    25     21     16 ar
    26     22     23 2 
    27     22     24 am
    28     25     26 2 
    29     27     28 ar
    30     28      4 ar
    31      1     29 1 
    32      1     30 1 
    33      3     31 1 
    34      5     32 1 
    35      6     33 1 
    36      8     34 1 
    37     10     35 1 
    38     10     36 1 
    39     11     37 1 
    40     11     38 1 
    41     12     39 1 
    42     12     40 1 
    43     13     41 1 
    44     13     42 1 
    45     15     43 1 
    46     17     44 1 
    47     18     45 1 
    48     20     46 1 
    49     21     47 1 
    50     23     48 1 
    51     24     49 1 
    52     24     50 1 
    53     27     51 1 
    54     28     52 1 
@<TRIPOS>SUBSTRUCTURE
     1 MOL1         1 MOLECULE          1 A
