# Molecule written by the XED library from Cresset
@<TRIPOS>MOLECULE
CHEMBL368131
    53     56      1
SMALL
USER_CHARGES
@<TRIPOS>ATOM
      1 N            8.2030   -2.3837    0.0456 N.am      1 MOL1       -0.4219
      2 C            7.8616   -1.0718    0.0276 C.2       1 MOL1        0.1481
      3 N            8.7581   -0.1233    0.0194 N.2       1 MOL1       -0.5920
      4 C            6.4326   -0.6559    0.0129 C.ar      1 MOL1       -0.0228
      5 C            5.3682   -1.5850    0.0670 C.ar      1 MOL1       -0.0744
      6 C            4.0600   -1.1920    0.0492 C.ar      1 MOL1       -0.0884
      7 C            3.8143    0.1744   -0.0251 C.ar      1 MOL1        0.0791
      8 C            4.8279    1.0895   -0.0768 C.ar      1 MOL1        0.0236
      9 C            6.1619    0.6919   -0.0578 C.ar      1 MOL1       -0.0479
     10 N            4.2127    2.3160   -0.1483 N.ar      1 MOL1       -0.4061
     11 C            2.9053    2.1207   -0.1421 C.ar      1 MOL1        0.1879
     12 N            2.5980    0.7921   -0.0628 N.pl3     1 MOL1       -0.1525
     13 C            1.2695    0.1508   -0.0585 C.3       1 MOL1        0.1480
     14 C            0.0599    1.0681   -0.0055 C.2       1 MOL1        0.3188
     15 O            0.1672    2.2467    0.3034 O.2       1 MOL1       -0.4176
     16 N           -1.1120    0.4894   -0.3487 N.am      1 MOL1       -0.3984
     17 C           -2.2913    1.3358   -0.6007 C.3       1 MOL1        0.0721
     18 C           -3.4948    0.8869    0.2480 C.3       1 MOL1       -0.0691
     19 C           -3.7994   -0.6025   -0.0186 C.3       1 MOL1       -0.0503
     20 C           -4.9875   -1.0752    0.8490 C.3       1 MOL1       -0.0464
     21 C           -6.3631   -0.6073    0.3943 C.ar      1 MOL1       -0.0632
     22 C           -6.8756    0.5958    0.8294 C.ar      1 MOL1       -0.0864
     23 C           -8.1222    1.0100    0.4193 C.ar      1 MOL1       -0.0901
     24 C           -8.8651    0.2206   -0.4280 C.ar      1 MOL1       -0.0906
     25 C           -8.3594   -0.9822   -0.8645 C.ar      1 MOL1       -0.0901
     26 C           -7.1117   -1.3936   -0.4544 C.ar      1 MOL1       -0.0864
     27 C           -2.5449   -1.4400    0.3098 C.3       1 MOL1       -0.0691
     28 C           -1.3245   -0.9675   -0.5094 C.3       1 MOL1        0.0721
     29  H           9.0498   -2.6229    0.0565 H         1 MOL1        0.2753
     30  H           7.5849   -3.0079    0.0452 H         1 MOL1        0.2753
     31  H           9.6915   -0.4822    0.0297 H         1 MOL1        0.2200
     32  H           5.5711   -2.5613    0.1198 H         1 MOL1        0.0910
     33  H           3.3137   -1.8566    0.0867 H         1 MOL1        0.0919
     34  H           6.9007    1.3647   -0.0966 H         1 MOL1        0.0923
     35  H           2.2287    2.8549   -0.1904 H         1 MOL1        0.1080
     36  H           1.2289   -0.4907   -1.0721 H         1 MOL1        0.0657
     37  H           1.2479   -0.5780    0.8949 H         1 MOL1        0.0657
     38  H          -2.0447    2.4830   -0.3505 H         1 MOL1        0.0593
     39  H          -2.5841    1.2469   -1.7610 H         1 MOL1        0.0593
     40  H          -4.4522    1.5513   -0.0379 H         1 MOL1        0.0476
     41  H          -3.2328    1.0425    1.4086 H         1 MOL1        0.0476
     42  H          -4.0715   -0.7536   -1.1775 H         1 MOL1        0.0490
     43  H          -4.7986   -0.7141    1.9780 H         1 MOL1        0.0495
     44  H          -5.0044   -2.2759    0.8563 H         1 MOL1        0.0495
     45  H          -6.3385    1.1713    1.4462 H         1 MOL1        0.0908
     46  H          -8.4885    1.8845    0.7376 H         1 MOL1        0.0906
     47  H          -9.7715    0.5203   -0.7257 H         1 MOL1        0.0906
     48  H          -8.8986   -1.5577   -1.4794 H         1 MOL1        0.0906
     49  H          -6.7472   -2.2686   -0.7727 H         1 MOL1        0.0908
     50  H          -2.2970   -1.3258    1.4783 H         1 MOL1        0.0476
     51  H          -2.7477   -2.5961    0.0600 H         1 MOL1        0.0476
     52  H          -1.5328   -1.1935   -1.6693 H         1 MOL1        0.0593
     53  H          -0.4146   -1.6546   -0.1425 H         1 MOL1        0.0593
@<TRIPOS>BOND
     1      1      2 am
     2      2      3 2 
     3      2      4 1 
     4      4      5 ar
     5      5      6 ar
     6      6      7 ar
     7      7      8 ar
     8      8      9 ar
     9      8     10 ar
    10      9      4 ar
    11     10     11 ar
    12     11     12 ar
    13     12      7 ar
    14     12     13 1 
    15     13     14 1 
    16     14     15 2 
    17     14     16 am
    18     16     17 1 
    19     17     18 1 
    20     18     19 1 
    21     19     20 1 
    22     19     27 1 
    23     20     21 1 
    24     21     22 ar
    25     22     23 ar
    26     23     24 ar
    27     24     25 ar
    28     25     26 ar
    29     26     21 ar
    30     27     28 1 
    31     28     16 1 
    32      1     29 1 
    33      1     30 1 
    34      3     31 1 
    35      5     32 1 
    36      6     33 1 
    37      9     34 1 
    38     11     35 1 
    39     13     36 1 
    40     13     37 1 
    41     17     38 1 
    42     17     39 1 
    43     18     40 1 
    44     18     41 1 
    45     19     42 1 
    46     20     43 1 
    47     20     44 1 
    48     22     45 1 
    49     23     46 1 
    50     24     47 1 
    51     25     48 1 
    52     26     49 1 
    53     27     50 1 
    54     27     51 1 
    55     28     52 1 
    56     28     53 1 
@<TRIPOS>SUBSTRUCTURE
     1 MOL1         1 MOLECULE          1 A
