# Molecule written by the XED library from Cresset
@<TRIPOS>MOLECULE
CHEMBL44868
    40     41      1
SMALL
USER_CHARGES
@<TRIPOS>ATOM
      1 C           -2.7145   -2.5641    1.0978 C.3       1 MOL1       -0.0643
      2 C           -3.5316   -1.3765    0.6339 C.2       1 MOL1        0.0430
      3 C           -4.8388   -1.4784    0.2734 C.2       1 MOL1       -0.0755
      4 N           -5.5708   -0.3945   -0.1340 N.2       1 MOL1       -0.3692
      5 C           -4.9406    0.7719   -0.1845 C.2       1 MOL1        0.1724
      6 N           -5.5625    1.9172   -0.5512 N.am      1 MOL1       -0.4095
      7 C           -3.5446    0.8791    0.1515 C.2       1 MOL1        0.3203
      8 O           -3.0497    1.9997    0.0223 O.2       1 MOL1       -0.4341
      9 N           -2.8749   -0.1970    0.5758 N.am      1 MOL1       -0.1914
     10 C           -1.4546   -0.0531    0.9593 C.3       1 MOL1        0.1486
     11 C           -0.5020   -0.6281   -0.0629 C.2       1 MOL1        0.3219
     12 O           -0.8804   -1.0753   -1.1366 O.2       1 MOL1       -0.4181
     13 N            0.7757   -0.5829    0.3517 N.am      1 MOL1       -0.3833
     14 C            1.8470   -1.0933   -0.5198 C.3       1 MOL1        0.1140
     15 C            3.2191   -0.4585   -0.2872 C.ar      1 MOL1       -0.0562
     16 C            4.2827   -1.3138   -0.0890 C.ar      1 MOL1       -0.0358
     17 C            5.5316   -0.8070    0.1018 C.ar      1 MOL1       -0.1028
     18 C            5.7020    0.5666    0.0913 C.ar      1 MOL1        0.1224
     19 N            6.9666    1.1035    0.2843 N.pl3     1 MOL1       -0.4398
     20 N            4.6922    1.4426   -0.0941 N.ar      1 MOL1       -0.3666
     21 C            3.4689    0.8980   -0.2802 C.ar      1 MOL1        0.0398
     22 C            2.3331    1.8832   -0.4830 C.3       1 MOL1       -0.0659
     23  H          -2.3719   -2.4254    2.2391 H         1 MOL1        0.0476
     24  H          -3.3736   -3.5657    1.0405 H         1 MOL1        0.0476
     25  H          -1.7562   -2.6878    0.3861 H         1 MOL1        0.0476
     26  H          -5.2827   -2.3619    0.3158 H         1 MOL1        0.1005
     27  H          -6.4371    1.9151   -0.6514 H         1 MOL1        0.2753
     28  H          -5.1445    2.6864   -0.4651 H         1 MOL1        0.2753
     29  H          -1.2014    1.1152    1.0664 H         1 MOL1        0.0657
     30  H          -1.2596   -0.5474    2.0339 H         1 MOL1        0.0657
     31  H           0.9751   -0.2582    1.1459 H         1 MOL1        0.2040
     32  H           1.9071   -2.2790   -0.3419 H         1 MOL1        0.0620
     33  H           1.5362   -0.9098   -1.6644 H         1 MOL1        0.0620
     34  H           4.1404   -2.3038   -0.0865 H         1 MOL1        0.0908
     35  H           6.3124   -1.4151    0.2471 H         1 MOL1        0.0926
     36  H           7.6669    0.5696    0.2645 H         1 MOL1        0.2753
     37  H           7.0869    1.9610    0.1289 H         1 MOL1        0.2753
     38  H           1.5441    1.4641   -1.2830 H         1 MOL1        0.0476
     39  H           1.7816    2.0736    0.5662 H         1 MOL1        0.0476
     40  H           2.7848    2.9207   -0.8821 H         1 MOL1        0.0476
@<TRIPOS>BOND
     1      1      2 1 
     2      2      3 2 
     3      3      4 1 
     4      4      5 2 
     5      5      6 am
     6      5      7 1 
     7      7      8 2 
     8      7      9 am
     9      9      2 1 
    10      9     10 1 
    11     10     11 1 
    12     11     12 2 
    13     11     13 am
    14     13     14 1 
    15     14     15 1 
    16     15     16 ar
    17     16     17 ar
    18     17     18 ar
    19     18     19 1 
    20     18     20 ar
    21     20     21 ar
    22     21     15 ar
    23     21     22 1 
    24      1     23 1 
    25      1     24 1 
    26      1     25 1 
    27      3     26 1 
    28      6     27 1 
    29      6     28 1 
    30     10     29 1 
    31     10     30 1 
    32     13     31 1 
    33     14     32 1 
    34     14     33 1 
    35     16     34 1 
    36     17     35 1 
    37     19     36 1 
    38     19     37 1 
    39     22     38 1 
    40     22     39 1 
    41     22     40 1 
@<TRIPOS>SUBSTRUCTURE
     1 MOL1         1 MOLECULE          1 A
