# Molecule written by the XED library from Cresset
@<TRIPOS>MOLECULE
CHEMBL601043
    55     56      1
SMALL
USER_CHARGES
@<TRIPOS>ATOM
      1 C           -1.7064    4.4217   -0.5014 C.3       1 MOL1       -0.1137
      2 C           -1.2440    3.0212   -0.0552 C.3       1 MOL1       -0.0279
      3 C           -0.1394    2.5679   -1.0272 C.3       1 MOL1       -0.1137
      4 C           -0.5908    3.1882    1.3277 C.3       1 MOL1       -0.1137
      5 C           -2.4380    2.0178    0.0506 C.3       1 MOL1        0.0384
      6 N           -3.6351    2.4994   -0.6479 N.3       1 MOL1       -0.5849
      7 C           -2.2226    0.6072   -0.4847 C.2       1 MOL1        0.2933
      8 O           -1.5303    0.3815   -1.4680 O.2       1 MOL1       -0.4176
      9 N           -2.8898   -0.3625    0.1771 N.am      1 MOL1       -0.3905
     10 C           -3.8089   -0.1479    1.3115 C.3       1 MOL1        0.0725
     11 C           -4.6484   -1.4344    1.2777 C.3       1 MOL1       -0.0686
     12 C           -3.6986   -2.5067    0.7372 C.3       1 MOL1       -0.0562
     13 C           -2.7930   -1.7659   -0.2563 C.3       1 MOL1        0.1603
     14 C           -1.4146   -2.3910   -0.2488 C.2       1 MOL1        0.3241
     15 O           -1.1045   -3.2697   -1.0413 O.2       1 MOL1       -0.4176
     16 N           -0.6166   -1.8925    0.7111 N.am      1 MOL1       -0.3832
     17 C            0.6876   -2.5172    0.9825 C.3       1 MOL1        0.1157
     18 C            1.8968   -1.6444    0.6797 C.ar      1 MOL1       -0.0267
     19 C            3.0057   -2.2339    0.1135 C.ar      1 MOL1       -0.0825
     20 C            4.1368   -1.4986   -0.1436 C.ar      1 MOL1       -0.0574
     21 C            4.1855   -0.1476    0.1609 C.ar      1 MOL1       -0.0078
     22 C            3.0615    0.4422    0.7196 C.ar      1 MOL1       -0.0574
     23 C            1.9328   -0.2990    0.9787 C.ar      1 MOL1       -0.0825
     24 C            5.4131    0.6553   -0.1041 C.2       1 MOL1        0.1549
     25 N            6.5985    0.1534    0.1143 N.2       1 MOL1       -0.5838
     26 N            5.2794    1.9146   -0.5741 N.am      1 MOL1       -0.4206
     27 H           -2.7125    1.9730    1.2161 H         1 MOL1        0.0655
     28 H           -3.2671   -1.8527   -1.3550 H         1 MOL1        0.0678
     29  H          -2.2529    4.3245   -1.5648 H         1 MOL1        0.0438
     30  H          -2.4799    4.8605    0.3036 H         1 MOL1        0.0438
     31  H          -0.7756    5.1730   -0.6010 H         1 MOL1        0.0438
     32  H           0.7537    3.3680   -1.0648 H         1 MOL1        0.0438
     33  H           0.3089    1.5209   -0.6501 H         1 MOL1        0.0438
     34  H          -0.5916    2.4421   -2.1311 H         1 MOL1        0.0438
     35  H          -0.2060    2.1238    1.7265 H         1 MOL1        0.0438
     36  H          -1.3823    3.6450    2.1067 H         1 MOL1        0.0438
     37  H           0.3380    3.9435    1.2406 H         1 MOL1        0.0438
     38  H          -3.4672    2.6443   -1.6500 H         1 MOL1        0.2741
     39  H          -4.4568    1.9098   -0.4681 H         1 MOL1        0.2741
     40  H          -3.1950   -0.0894    2.3423 H         1 MOL1        0.0593
     41  H          -4.5374    0.7955    1.1698 H         1 MOL1        0.0593
     42  H          -5.5537   -1.2971    0.5016 H         1 MOL1        0.0474
     43  H          -5.0669   -1.7227    2.3645 H         1 MOL1        0.0474
     44  H          -4.2921   -3.4034    0.2055 H         1 MOL1        0.0479
     45  H          -3.0269   -2.9304    1.6359 H         1 MOL1        0.0479
     46  H          -0.8838   -1.2142    1.2049 H         1 MOL1        0.2040
     47  H           0.7617   -3.5425    0.3617 H         1 MOL1        0.0620
     48  H           0.7186   -2.7931    2.1507 H         1 MOL1        0.0620
     49  H           2.9894   -3.2086   -0.1078 H         1 MOL1        0.0908
     50  H           4.9302   -1.9470   -0.5543 H         1 MOL1        0.0910
     51  H           3.0733    1.4168    0.9427 H         1 MOL1        0.0910
     52  H           1.1337    0.1393    1.3910 H         1 MOL1        0.0908
     53  H           6.5685   -0.7781    0.4764 H         1 MOL1        0.2200
     54  H           4.4815    2.2543   -0.7275 H         1 MOL1        0.2753
     55  H           5.9973    2.3980   -0.7333 H         1 MOL1        0.2753
@<TRIPOS>BOND
     1      1      2 1 
     2      2      3 1 
     3      2      4 1 
     4      2      5 1 
     5      5      6 1 
     6      5      7 1 
     7      7      8 2 
     8      7      9 am
     9      9     10 1 
    10     10     11 1 
    11     11     12 1 
    12     12     13 1 
    13     13      9 1 
    14     13     14 1 
    15     14     15 2 
    16     14     16 am
    17     16     17 1 
    18     17     18 1 
    19     18     19 ar
    20     19     20 ar
    21     20     21 ar
    22     21     22 ar
    23     21     24 1 
    24     22     23 ar
    25     23     18 ar
    26     24     25 2 
    27     24     26 am
    28      1     29 1 
    29      1     30 1 
    30      1     31 1 
    31      3     32 1 
    32      3     33 1 
    33      3     34 1 
    34      4     35 1 
    35      4     36 1 
    36      4     37 1 
    37      5     27 1 
    38      6     38 1 
    39      6     39 1 
    40     10     40 1 
    41     10     41 1 
    42     11     42 1 
    43     11     43 1 
    44     12     44 1 
    45     12     45 1 
    46     13     28 1 
    47     16     46 1 
    48     17     47 1 
    49     17     48 1 
    50     19     49 1 
    51     20     50 1 
    52     22     51 1 
    53     23     52 1 
    54     25     53 1 
    55     26     54 1 
    56     26     55 1 
@<TRIPOS>SUBSTRUCTURE
     1 MOL1         1 MOLECULE          1 A
