# Molecule written by the XED library from Cresset
@<TRIPOS>MOLECULE
CHEMBL356630
    55     57      1
SMALL
USER_CHARGES
@<TRIPOS>ATOM
      1 C            7.6943    1.4737   -0.5621 C.3       1 MOL1       -0.0605
      2 N            6.8890    2.6709   -0.2099 N.2       1 MOL1       -0.4761
      3 C            5.6003    2.6353    0.0133 C.2       1 MOL1        0.1639
      4 N            4.9333    3.7794    0.2782 N.am      1 MOL1       -0.4210
      5 C            4.8078    1.3741   -0.0240 C.ar      1 MOL1       -0.0020
      6 C            5.2132    0.2448    0.6708 C.ar      1 MOL1       -0.0581
      7 C            4.4716   -0.9068    0.6295 C.ar      1 MOL1       -0.0722
      8 C            3.2919   -0.9622   -0.0967 C.ar      1 MOL1       -0.0127
      9 C            2.5659   -2.2500   -0.1271 C.2       1 MOL1       -0.0303
     10 C            1.2258   -2.4318    0.0011 C.2       1 MOL1       -0.0280
     11 C            0.9747   -3.9141   -0.1879 C.3       1 MOL1       -0.0457
     12 C           -0.4667   -4.3899   -0.0191 C.3       1 MOL1       -0.0863
     13 C           -1.3658   -3.6166   -0.9916 C.3       1 MOL1       -0.0863
     14 C           -1.9951   -2.4308   -0.2587 C.3       1 MOL1       -0.0457
     15 C           -1.0847   -1.2896    0.1589 C.2       1 MOL1       -0.0280
     16 C           -1.6209   -0.0484    0.2827 C.2       1 MOL1       -0.0303
     17 C           -3.0526    0.3263    0.1938 C.ar      1 MOL1       -0.0127
     18 C           -3.3391    1.6053   -0.2592 C.ar      1 MOL1       -0.0722
     19 C           -4.6325    2.0509   -0.3453 C.ar      1 MOL1       -0.0581
     20 C           -5.6955    1.2403    0.0279 C.ar      1 MOL1       -0.0026
     21 C           -5.4083   -0.0357    0.4932 C.ar      1 MOL1       -0.0581
     22 C           -4.1147   -0.4829    0.5744 C.ar      1 MOL1       -0.0722
     23 C           -7.0975    1.7443   -0.0590 C.2       1 MOL1        0.1561
     24 N           -8.0877    0.9384   -0.3328 N.2       1 MOL1       -0.5779
     25 N           -7.3341    3.0587    0.1496 N.am      1 MOL1       -0.4216
     26 C            0.3646   -1.3010    0.3276 C.2       1 MOL1        0.1799
     27 O            0.8346   -0.2830    0.8148 O.2       1 MOL1       -0.3945
     28 C            2.8827    0.1661   -0.7940 C.ar      1 MOL1       -0.0722
     29 C            3.6278    1.3171   -0.7522 C.ar      1 MOL1       -0.0581
     30  H           8.7146    1.8374   -1.0785 H         1 MOL1        0.0565
     31  H           7.0957    0.7767   -1.3340 H         1 MOL1        0.0565
     32  H           7.9717    0.8534    0.4262 H         1 MOL1        0.0565
     33  H           5.3724    4.5415    0.3163 H         1 MOL1        0.2753
     34  H           4.0626    3.7684    0.4132 H         1 MOL1        0.2753
     35  H           6.0542    0.2683    1.2086 H         1 MOL1        0.0910
     36  H           4.7840   -1.7151    1.1287 H         1 MOL1        0.0910
     37  H           3.1315   -3.0551   -0.2610 H         1 MOL1        0.0912
     38  H           1.3239   -4.2169   -1.2958 H         1 MOL1        0.0492
     39  H           1.6403   -4.5313    0.5977 H         1 MOL1        0.0492
     40  H          -0.4853   -5.5568   -0.3035 H         1 MOL1        0.0463
     41  H          -0.8067   -4.2740    1.1265 H         1 MOL1        0.0463
     42  H          -0.7809   -3.2388   -1.9691 H         1 MOL1        0.0463
     43  H          -2.2623   -4.3366   -1.3348 H         1 MOL1        0.0463
     44  H          -2.5359   -2.8719    0.7168 H         1 MOL1        0.0492
     45  H          -2.8260   -2.0037   -1.0107 H         1 MOL1        0.0492
     46  H          -0.9895    0.6941    0.4490 H         1 MOL1        0.0912
     47  H          -2.5907    2.2123   -0.5269 H         1 MOL1        0.0910
     48  H          -4.8100    2.9755   -0.6809 H         1 MOL1        0.0910
     49  H          -6.1494   -0.6400    0.7828 H         1 MOL1        0.0910
     50  H          -3.9396   -1.4015    0.9197 H         1 MOL1        0.0910
     51  H          -7.7953   -0.0031   -0.4948 H         1 MOL1        0.2200
     52  H          -6.6780    3.6084    0.3543 H         1 MOL1        0.2753
     53  H          -8.1554    3.3679    0.0846 H         1 MOL1        0.2753
     54  H           2.0386    0.1402   -1.3294 H         1 MOL1        0.0910
     55  H           3.3183    2.1242   -1.2547 H         1 MOL1        0.0910
@<TRIPOS>BOND
     1      1      2 1 
     2      2      3 2 
     3      3      4 am
     4      3      5 1 
     5      5      6 ar
     6      6      7 ar
     7      7      8 ar
     8      8      9 1 
     9      8     28 ar
    10      9     10 2 
    11     10     11 1 
    12     10     26 1 
    13     11     12 1 
    14     12     13 1 
    15     13     14 1 
    16     14     15 1 
    17     15     16 2 
    18     15     26 1 
    19     16     17 1 
    20     17     18 ar
    21     18     19 ar
    22     19     20 ar
    23     20     21 ar
    24     20     23 1 
    25     21     22 ar
    26     22     17 ar
    27     23     24 2 
    28     23     25 am
    29     26     27 2 
    30     28     29 ar
    31     29      5 ar
    32      1     30 1 
    33      1     31 1 
    34      1     32 1 
    35      4     33 1 
    36      4     34 1 
    37      6     35 1 
    38      7     36 1 
    39      9     37 1 
    40     11     38 1 
    41     11     39 1 
    42     12     40 1 
    43     12     41 1 
    44     13     42 1 
    45     13     43 1 
    46     14     44 1 
    47     14     45 1 
    48     16     46 1 
    49     18     47 1 
    50     19     48 1 
    51     21     49 1 
    52     22     50 1 
    53     24     51 1 
    54     25     52 1 
    55     25     53 1 
    56     28     54 1 
    57     29     55 1 
@<TRIPOS>SUBSTRUCTURE
     1 MOL1         1 MOLECULE          1 A
