# Molecule written by the XED library from Cresset
@<TRIPOS>MOLECULE
CHEMBL193500
    40     42      1
SMALL
USER_CHARGES
@<TRIPOS>ATOM
      1 N           -5.2006   -3.1200   -0.0286 N.pl3     1 MOL1       -0.4230
      2 C           -4.8132   -1.8066    0.0162 C.ar      1 MOL1        0.1489
      3 C           -5.7375   -0.7997   -0.2505 C.ar      1 MOL1       -0.1104
      4 C           -5.3477    0.4991   -0.2053 C.ar      1 MOL1       -0.0777
      5 C           -4.0154    0.8261    0.1121 C.ar      1 MOL1        0.0080
      6 C           -3.6538    2.2217    0.1510 C.1       1 MOL1        0.3854
      7 N           -3.3694    3.3214    0.1810 N.1       1 MOL1       -0.4973
      8 C           -3.1189   -0.1874    0.3741 C.ar      1 MOL1        0.0673
      9 C           -1.6567    0.0626    0.7500 C.3       1 MOL1        0.0422
     10 C           -0.6682   -0.8585    0.0666 C.2       1 MOL1        0.2989
     11 O           -0.9954   -1.7215   -0.7373 O.2       1 MOL1       -0.4204
     12 N            0.5949   -0.6102    0.4472 N.am      1 MOL1       -0.3836
     13 C            1.6880   -1.3769   -0.1689 C.3       1 MOL1        0.1163
     14 C            3.0948   -0.7836   -0.0839 C.ar      1 MOL1       -0.0308
     15 C            4.0882   -1.7340    0.0038 C.ar      1 MOL1       -0.0553
     16 C            5.4172   -1.3792    0.0771 C.ar      1 MOL1        0.0333
     17 Cl           6.6456   -2.6054    0.1663 Cl        1 MOL1       -0.1082
     18 C            5.7715   -0.0506    0.0731 C.ar      1 MOL1       -0.0613
     19 C            4.7947    0.9088   -0.0121 C.ar      1 MOL1       -0.0758
     20 C            3.4558    0.5656   -0.1032 C.ar      1 MOL1        0.0724
     21 N            2.5137    1.5983   -0.2097 N.pl3     1 MOL1        0.1489
     22 C            1.3949    1.7464   -0.9919 C.ar      1 MOL1        0.2070
     23 N            0.8475    2.9169   -0.7985 N.ar      1 MOL1       -0.2749
     24 N            1.6051    3.5389    0.0941 N.ar      1 MOL1       -0.2010
     25 N            2.5735    2.7724    0.4251 N.2       1 MOL1       -0.0743
     26 N           -3.5276   -1.4890    0.3211 N.pl3     1 MOL1        0.1533
     27 O           -2.7374   -2.4050    0.5509 O.co2     1 MOL1       -0.4548
     28  H          -6.0335   -3.3310   -0.2238 H         1 MOL1        0.2754
     29  H          -4.6170   -3.7578    0.1369 H         1 MOL1        0.2754
     30  H          -6.6838   -1.0332   -0.4740 H         1 MOL1        0.0929
     31  H          -6.0089    1.2249   -0.3962 H         1 MOL1        0.0914
     32  H          -1.3422    1.1859    0.4680 H         1 MOL1        0.0571
     33  H          -1.5423   -0.0718    1.9367 H         1 MOL1        0.0571
     34  H           0.7697    0.0073    1.0512 H         1 MOL1        0.2040
     35  H           1.6634   -2.4592    0.3521 H         1 MOL1        0.0620
     36  H           1.4240   -1.5274   -1.3295 H         1 MOL1        0.0620
     37  H           3.8431   -2.7036    0.0098 H         1 MOL1        0.0941
     38  H           6.7345    0.2143    0.1282 H         1 MOL1        0.0939
     39  H           5.0547    1.8742   -0.0169 H         1 MOL1        0.0919
     40  H           1.0448    1.0529   -1.6220 H         1 MOL1        0.1098
@<TRIPOS>BOND
     1      1      2 1 
     2      2      3 ar
     3      3      4 ar
     4      4      5 ar
     5      5      6 1 
     6      5      8 ar
     7      6      7 3 
     8      8      9 1 
     9      8     26 ar
    10      9     10 1 
    11     10     11 2 
    12     10     12 am
    13     12     13 1 
    14     13     14 1 
    15     14     15 ar
    16     15     16 ar
    17     16     17 1 
    18     16     18 ar
    19     18     19 ar
    20     19     20 ar
    21     20     14 ar
    22     20     21 1 
    23     21     22 ar
    24     22     23 ar
    25     23     24 ar
    26     24     25 ar
    27     25     21 ar
    28     26      2 ar
    29     26     27 1 
    30      1     28 1 
    31      1     29 1 
    32      3     30 1 
    33      4     31 1 
    34      9     32 1 
    35      9     33 1 
    36     12     34 1 
    37     13     35 1 
    38     13     36 1 
    39     15     37 1 
    40     18     38 1 
    41     19     39 1 
    42     22     40 1 
@<TRIPOS>SUBSTRUCTURE
     1 MOL1         1 MOLECULE          1 A
