# Molecule written by the XED library from Cresset
@<TRIPOS>MOLECULE
CHEMBL343784
    45     48      1
SMALL
USER_CHARGES
@<TRIPOS>ATOM
      1 N           -6.6275   -3.3134    0.0001 N.am      1 MOL1       -0.4223
      2 C           -5.3820   -2.7763    0.0000 C.2       1 MOL1        0.1475
      3 N           -4.3086   -3.5195    0.0000 N.2       1 MOL1       -0.5906
      4 C           -5.1868   -1.3018    0.0000 C.ar      1 MOL1       -0.0203
      5 C           -6.2729   -0.3966    0.0000 C.ar      1 MOL1       -0.0803
      6 C           -6.0915    0.9537    0.0000 C.ar      1 MOL1       -0.0805
      7 C           -4.7760    1.4215    0.0000 C.ar      1 MOL1        0.0310
      8 N           -4.2265    2.6776   -0.0001 N.ar      1 MOL1       -0.4036
      9 C           -2.9094    2.5497   -0.0001 C.ar      1 MOL1        0.1957
     10 N           -2.5311    1.2379    0.0000 N.pl3     1 MOL1       -0.1552
     11 C           -1.1687    0.6663   -0.0001 C.3       1 MOL1        0.1450
     12 C            0.0225    1.6085    0.0001 C.2       1 MOL1        0.2106
     13 O           -0.1006    2.8196    0.0001 O.2       1 MOL1       -0.3608
     14 C            1.3875    1.0584    0.0000 C.ar      1 MOL1       -0.0017
     15 C            1.6323   -0.3096    0.0000 C.ar      1 MOL1       -0.0584
     16 C            2.9132   -0.7980    0.0000 C.ar      1 MOL1       -0.0803
     17 C            4.0214    0.0452    0.0000 C.ar      1 MOL1       -0.0064
     18 C            3.7646    1.4130    0.0001 C.ar      1 MOL1       -0.0803
     19 C            2.4877    1.9072    0.0001 C.ar      1 MOL1       -0.0584
     20 C            5.3899   -0.4748    0.0000 C.ar      1 MOL1       -0.0208
     21 C            5.6505   -1.8407    0.0000 C.ar      1 MOL1       -0.0780
     22 C            6.9345   -2.3301    0.0000 C.ar      1 MOL1       -0.0894
     23 C            8.0042   -1.4664    0.0000 C.ar      1 MOL1       -0.0873
     24 C            7.7776   -0.1107    0.0000 C.ar      1 MOL1       -0.0894
     25 C            6.4921    0.3740    0.0000 C.ar      1 MOL1       -0.0780
     26 C           -3.7172    0.5565    0.0000 C.ar      1 MOL1        0.0693
     27 C           -3.8933   -0.8186    0.0000 C.ar      1 MOL1       -0.0583
     28  H          -6.7353   -4.1867    0.0000 H         1 MOL1        0.2753
     29  H          -7.3387   -2.7980    0.0003 H         1 MOL1        0.2753
     30  H          -4.5228   -4.4964   -0.0002 H         1 MOL1        0.2200
     31  H          -7.2067   -0.7500   -0.0001 H         1 MOL1        0.0910
     32  H          -6.8683    1.5834   -0.0002 H         1 MOL1        0.0919
     33  H          -2.2744    3.3209    0.0000 H         1 MOL1        0.1080
     34  H          -1.0779   -0.0321    0.9716 H         1 MOL1        0.0647
     35  H          -1.0779   -0.0321   -0.9716 H         1 MOL1        0.0647
     36  H           0.8624   -0.9477   -0.0001 H         1 MOL1        0.0910
     37  H           3.0428   -1.7870    0.0000 H         1 MOL1        0.0910
     38  H           4.5222    2.0613    0.0001 H         1 MOL1        0.0910
     39  H           2.3443    2.8969    0.0001 H         1 MOL1        0.0910
     40  H           4.8945   -2.4912   -0.0001 H         1 MOL1        0.0910
     41  H           7.0918   -3.3176    0.0000 H         1 MOL1        0.0906
     42  H           8.9390   -1.8214   -0.0001 H         1 MOL1        0.0906
     43  H           8.5502    0.5243    0.0001 H         1 MOL1        0.0906
     44  H           6.3591    1.3621    0.0001 H         1 MOL1        0.0910
     45  H          -3.1097   -1.4398    0.0001 H         1 MOL1        0.0923
@<TRIPOS>BOND
     1      1      2 am
     2      2      3 2 
     3      2      4 1 
     4      4      5 ar
     5      5      6 ar
     6      6      7 ar
     7      7      8 ar
     8      8      9 ar
     9      9     10 ar
    10     10     11 1 
    11     10     26 ar
    12     11     12 1 
    13     12     13 2 
    14     12     14 1 
    15     14     15 ar
    16     15     16 ar
    17     16     17 ar
    18     17     18 ar
    19     17     20 1 
    20     18     19 ar
    21     19     14 ar
    22     20     21 ar
    23     21     22 ar
    24     22     23 ar
    25     23     24 ar
    26     24     25 ar
    27     25     20 ar
    28     26      7 ar
    29     26     27 ar
    30     27      4 ar
    31      1     28 1 
    32      1     29 1 
    33      3     30 1 
    34      5     31 1 
    35      6     32 1 
    36      9     33 1 
    37     11     34 1 
    38     11     35 1 
    39     15     36 1 
    40     16     37 1 
    41     18     38 1 
    42     19     39 1 
    43     21     40 1 
    44     22     41 1 
    45     23     42 1 
    46     24     43 1 
    47     25     44 1 
    48     27     45 1 
@<TRIPOS>SUBSTRUCTURE
     1 MOL1         1 MOLECULE          1 A
