# Molecule written by the XED library from Cresset
@<TRIPOS>MOLECULE
CHEMBL361432
    51     52      1
SMALL
USER_CHARGES
@<TRIPOS>ATOM
      1 C           -6.8847   -0.1961    1.1822 C.3       1 MOL1       -0.1122
      2 C           -5.6923   -0.8255    0.4443 C.3       1 MOL1       -0.0203
      3 C           -5.1704   -1.9823    1.3139 C.3       1 MOL1       -0.1122
      4 C           -6.1965   -1.3784   -0.9008 C.3       1 MOL1       -0.1122
      5 C           -4.5994    0.2547    0.2528 C.3       1 MOL1        0.0740
      6 O           -5.0992    1.3601   -0.5192 O.3       1 MOL1       -0.4291
      7 C           -3.3068   -0.2319   -0.3787 C.2       1 MOL1        0.2996
      8 O           -3.1714   -1.3469   -0.8637 O.2       1 MOL1       -0.4159
      9 N           -2.3268    0.6898   -0.3475 N.am      1 MOL1       -0.3927
     10 C           -2.3892    2.0623    0.1640 C.3       1 MOL1        0.0604
     11 C           -0.9695    1.9898   -0.4251 C.3       1 MOL1       -0.0107
     12 C           -0.9687    0.5123   -0.8660 C.3       1 MOL1        0.1489
     13 C           -0.0737   -0.3451   -0.0011 C.2       1 MOL1        0.3214
     14 O           -0.5092   -1.0836    0.8713 O.2       1 MOL1       -0.4176
     15 N            1.2263   -0.1812   -0.2944 N.am      1 MOL1       -0.3832
     16 C            2.2447   -0.7917    0.5743 C.3       1 MOL1        0.1154
     17 C            3.6878   -0.4342    0.2256 C.ar      1 MOL1       -0.0323
     18 C            4.5833   -1.4816    0.1747 C.ar      1 MOL1       -0.0576
     19 C            5.9109   -1.2639   -0.1148 C.ar      1 MOL1        0.0436
     20 Cl           7.0275   -2.5978   -0.1591 Cl        1 MOL1       -0.1082
     21 C            6.3518    0.0140   -0.3648 C.ar      1 MOL1       -0.0637
     22 C            5.4651    1.0627   -0.3159 C.ar      1 MOL1       -0.0779
     23 C            4.1357    0.8557   -0.0121 C.ar      1 MOL1       -0.0513
     24 C            3.2150    2.0715    0.0361 C.3       1 MOL1       -0.0191
     25 N            3.8561    3.2761    0.5790 N.3       1 MOL1       -0.6086
     26 H           -4.3333    0.6684    1.3475 H         1 MOL1        0.0726
     27 H           -0.9082    0.3437   -2.0527 H         1 MOL1        0.0683
     28  H          -7.7515   -1.0159    1.3117 H         1 MOL1        0.0438
     29  H          -7.3042    0.7329    0.5491 H         1 MOL1        0.0438
     30  H          -6.5279    0.1843    2.2632 H         1 MOL1        0.0438
     31  H          -4.7674   -1.5488    2.3580 H         1 MOL1        0.0438
     32  H          -4.2807   -2.5571    0.7522 H         1 MOL1        0.0438
     33  H          -6.0617   -2.7584    1.5254 H         1 MOL1        0.0438
     34  H          -6.6709   -0.4894   -1.5526 H         1 MOL1        0.0438
     35  H          -5.3028   -1.8959   -1.5111 H         1 MOL1        0.0438
     36  H          -7.0470   -2.1979   -0.6881 H         1 MOL1        0.0438
     37  H          -5.2729    1.0937   -1.4735 H         1 MOL1        0.3291
     38  H          -2.4155    2.1422    1.3610 H         1 MOL1        0.0597
     39  H          -3.1439    2.7735   -0.4399 H         1 MOL1        0.0597
     40  H          -0.8472    2.7285   -1.3617 H         1 MOL1        0.0522
     41  H          -0.1362    2.1935    0.4132 H         1 MOL1        0.0522
     42  H           1.4700    0.3084   -0.9860 H         1 MOL1        0.2040
     43  H           2.0749   -1.9796    0.5384 H         1 MOL1        0.0620
     44  H           2.0395   -0.4227    1.6978 H         1 MOL1        0.0620
     45  H           4.2682   -2.4136    0.3541 H         1 MOL1        0.0941
     46  H           7.3143    0.1798   -0.5796 H         1 MOL1        0.0939
     47  H           5.7898    1.9907   -0.4992 H         1 MOL1        0.0908
     48  H           2.8358    2.3102   -1.0767 H         1 MOL1        0.0594
     49  H           2.2594    1.8328    0.7219 H         1 MOL1        0.0594
     50  H           4.2354    3.1253    1.5212 H         1 MOL1        0.2740
     51  H           3.2457    4.1011    0.5310 H         1 MOL1        0.2740
@<TRIPOS>BOND
     1      1      2 1 
     2      2      3 1 
     3      2      4 1 
     4      2      5 1 
     5      5      6 1 
     6      5      7 1 
     7      7      8 2 
     8      7      9 am
     9      9     10 1 
    10     10     11 1 
    11     11     12 1 
    12     12      9 1 
    13     12     13 1 
    14     13     14 2 
    15     13     15 am
    16     15     16 1 
    17     16     17 1 
    18     17     18 ar
    19     18     19 ar
    20     19     20 1 
    21     19     21 ar
    22     21     22 ar
    23     22     23 ar
    24     23     17 ar
    25     23     24 1 
    26     24     25 1 
    27      1     28 1 
    28      1     29 1 
    29      1     30 1 
    30      3     31 1 
    31      3     32 1 
    32      3     33 1 
    33      4     34 1 
    34      4     35 1 
    35      4     36 1 
    36      5     26 1 
    37      6     37 1 
    38     10     38 1 
    39     10     39 1 
    40     11     40 1 
    41     11     41 1 
    42     12     27 1 
    43     15     42 1 
    44     16     43 1 
    45     16     44 1 
    46     18     45 1 
    47     21     46 1 
    48     22     47 1 
    49     24     48 1 
    50     24     49 1 
    51     25     50 1 
    52     25     51 1 
@<TRIPOS>SUBSTRUCTURE
     1 MOL1         1 MOLECULE          1 A
