# Molecule written by the XED library from Cresset
@<TRIPOS>MOLECULE
CHEMBL53812
    22     22      1
SMALL
USER_CHARGES
@<TRIPOS>ATOM
      1 N            4.7340   -0.1491    0.5806 N.am      1 MOL1       -0.3967
      2 C            3.5370    0.2573    0.1044 C.2       1 MOL1        0.2324
      3 N            3.3504    1.4576   -0.3883 N.2       1 MOL1       -0.6316
      4 N            2.5220   -0.6385    0.1555 N.am      1 MOL1       -0.2591
      5 S            1.0949   -0.3622   -0.6172 S.3       1 MOL1        0.5498
      6 O            1.0076   -1.7810   -0.4768 O.2       1 MOL1       -0.3088
      7 O            1.3144    0.8205    0.1474 O.2       1 MOL1       -0.3088
      8 C           -0.6732   -0.1503   -0.2980 C.ar      1 MOL1        0.0711
      9 C           -1.4955   -1.2368   -0.0689 C.ar      1 MOL1       -0.0603
     10 C           -2.8437   -1.0519    0.1345 C.ar      1 MOL1       -0.0759
     11 C           -3.3790    0.2163    0.1097 C.ar      1 MOL1        0.0308
     12 I           -5.4330    0.5000    0.4040 I         1 MOL1       -0.0578
     13 C           -2.5642    1.3015   -0.1156 C.ar      1 MOL1       -0.0759
     14 C           -1.2180    1.1185   -0.3227 C.ar      1 MOL1       -0.0603
     15  H           5.4263    0.3939    0.5748 H         1 MOL1        0.2756
     16  H           4.8282   -0.9658    0.8937 H         1 MOL1        0.2756
     17  H           4.1785    2.0183   -0.3613 H         1 MOL1        0.2205
     18  H           2.6521   -1.4037    0.5727 H         1 MOL1        0.2110
     19  H          -1.1110   -2.1592   -0.0552 H         1 MOL1        0.0915
     20  H          -3.4371   -1.8399    0.2964 H         1 MOL1        0.0927
     21  H          -2.9520    2.2229   -0.1333 H         1 MOL1        0.0927
     22  H          -0.6283    1.9079   -0.4927 H         1 MOL1        0.0915
@<TRIPOS>BOND
     1      1      2 am
     2      2      3 2 
     3      2      4 am
     4      4      5 1 
     5      5      6 2 
     6      5      7 2 
     7      5      8 1 
     8      8      9 ar
     9      9     10 ar
    10     10     11 ar
    11     11     12 1 
    12     11     13 ar
    13     13     14 ar
    14     14      8 ar
    15      1     15 1 
    16      1     16 1 
    17      3     17 1 
    18      4     18 1 
    19      9     19 1 
    20     10     20 1 
    21     13     21 1 
    22     14     22 1 
@<TRIPOS>SUBSTRUCTURE
     1 MOL1         1 MOLECULE          1 A
