# Molecule written by the XED library from Cresset
@<TRIPOS>MOLECULE
CHEMBL2409218
    52     56      1
SMALL
USER_CHARGES
@<TRIPOS>ATOM
      1 C           -4.9967    3.4077   -0.0007 C.3       1 MOL1       -0.0471
      2 O           -5.6071    2.1058    0.0985 O.3       1 MOL1       -0.2024
      3 C           -4.8299    1.0157   -0.0151 C.ar      1 MOL1        0.0655
      4 C           -3.4623    1.0846   -0.2148 C.ar      1 MOL1       -0.0751
      5 C           -2.6732   -0.0485   -0.3248 C.ar      1 MOL1       -0.0595
      6 C           -3.3122   -1.2693   -0.2557 C.ar      1 MOL1       -0.0969
      7 C           -4.6702   -1.3668   -0.0559 C.ar      1 MOL1       -0.0813
      8 C           -5.4307   -0.2287    0.0689 C.ar      1 MOL1        0.0562
      9 O           -6.7761   -0.3223    0.2687 O.3       1 MOL1       -0.3815
     10 C           -1.1502    0.0493   -0.5624 C.3       1 MOL1        0.0197
     11 N           -0.5530    1.2833    0.0196 N.pl3     1 MOL1       -0.2897
     12 C            0.8303    1.5278    0.0240 C.ar      1 MOL1        0.0619
     13 C            1.2922    2.7899    0.3561 C.ar      1 MOL1       -0.1120
     14 C            2.6330    3.0643    0.3688 C.ar      1 MOL1       -0.0556
     15 C            3.5700    2.0937    0.0377 C.ar      1 MOL1       -0.0343
     16 C            3.0922    0.8305   -0.2979 C.ar      1 MOL1       -0.0511
     17 C            1.7510    0.5309   -0.2877 C.ar      1 MOL1       -0.0756
     18 C            1.2079   -0.8516   -0.6453 C.3       1 MOL1        0.0233
     19 C           -0.1873   -1.0394   -0.0098 C.3       1 MOL1       -0.0258
     20 C           -0.4733   -2.5398   -0.2039 C.3       1 MOL1       -0.0420
     21 C            0.9141   -3.1136   -0.0496 C.ar      1 MOL1       -0.0580
     22 C            1.2331   -4.4072    0.2880 C.ar      1 MOL1       -0.0859
     23 C            2.5600   -4.7599    0.3848 C.ar      1 MOL1       -0.0901
     24 C            3.5428   -3.8251    0.1417 C.ar      1 MOL1       -0.0900
     25 C            3.2105   -2.5307   -0.1956 C.ar      1 MOL1       -0.0850
     26 C            1.8830   -2.1703   -0.2843 C.ar      1 MOL1       -0.0499
     27 C            5.0270    2.4244    0.0437 C.2       1 MOL1        0.1423
     28 N            5.9394    1.4968    0.1748 N.2       1 MOL1       -0.5987
     29 N            5.4107    3.7156   -0.0820 N.am      1 MOL1       -0.4232
     30 H           -1.0152    0.1034   -1.7534 H         1 MOL1        0.0625
     31 H            1.0898   -0.8756   -1.8391 H         1 MOL1        0.0552
     32 H           -0.0855   -0.8680    1.1740 H         1 MOL1        0.0513
     33  H          -4.1791    3.5359    0.8682 H         1 MOL1        0.0618
     34  H          -5.8412    4.2516    0.1202 H         1 MOL1        0.0618
     35  H          -4.4684    3.5243   -1.0718 H         1 MOL1        0.0618
     36  H          -3.0367    1.9841   -0.2846 H         1 MOL1        0.0926
     37  H          -2.7848   -2.1072   -0.3559 H         1 MOL1        0.0908
     38  H          -5.1043   -2.2661   -0.0039 H         1 MOL1        0.0924
     39  H          -7.0786   -1.2813    0.3046 H         1 MOL1        0.3295
     40  H          -1.0654    1.9950    0.0626 H         1 MOL1        0.2759
     41  H           0.6385    3.5092    0.5911 H         1 MOL1        0.0917
     42  H           2.9368    3.9820    0.6202 H         1 MOL1        0.0910
     43  H           3.7362    0.1199   -0.5608 H         1 MOL1        0.0912
     44  H          -1.1856   -2.9749    0.6585 H         1 MOL1        0.0495
     45  H          -0.8889   -2.7732   -1.3054 H         1 MOL1        0.0495
     46  H           0.5138   -5.0802    0.4604 H         1 MOL1        0.0908
     47  H           2.8111   -5.6963    0.6299 H         1 MOL1        0.0906
     48  H           4.5051   -4.0885    0.2091 H         1 MOL1        0.0906
     49  H           3.9327   -1.8674   -0.3754 H         1 MOL1        0.0908
     50  H           5.5632    0.5812    0.2956 H         1 MOL1        0.2200
     51  H           4.8207    4.3554   -0.2056 H         1 MOL1        0.2753
     52  H           6.2663    3.9180   -0.0444 H         1 MOL1        0.2753
@<TRIPOS>BOND
     1      1      2 1 
     2      2      3 1 
     3      3      4 ar
     4      4      5 ar
     5      5      6 ar
     6      5     10 1 
     7      6      7 ar
     8      7      8 ar
     9      8      3 ar
    10      8      9 1 
    11     10     11 1 
    12     11     12 1 
    13     12     13 ar
    14     13     14 ar
    15     14     15 ar
    16     15     16 ar
    17     15     27 1 
    18     16     17 ar
    19     17     12 ar
    20     17     18 1 
    21     18     19 1 
    22     19     10 1 
    23     19     20 1 
    24     20     21 1 
    25     21     22 ar
    26     22     23 ar
    27     23     24 ar
    28     24     25 ar
    29     25     26 ar
    30     26     18 1 
    31     26     21 ar
    32     27     28 2 
    33     27     29 am
    34      1     33 1 
    35      1     34 1 
    36      1     35 1 
    37      4     36 1 
    38      6     37 1 
    39      7     38 1 
    40      9     39 1 
    41     10     30 1 
    42     11     40 1 
    43     13     41 1 
    44     14     42 1 
    45     16     43 1 
    46     18     31 1 
    47     19     32 1 
    48     20     44 1 
    49     20     45 1 
    50     22     46 1 
    51     23     47 1 
    52     24     48 1 
    53     25     49 1 
    54     28     50 1 
    55     29     51 1 
    56     29     52 1 
@<TRIPOS>SUBSTRUCTURE
     1 MOL1         1 MOLECULE          1 A
