# Molecule written by the XED library from Cresset
@<TRIPOS>MOLECULE
CHEMBL111567
    46     49      1
SMALL
USER_CHARGES
@<TRIPOS>ATOM
      1 N           -8.4003    0.3703    0.0017 N.am      1 MOL1       -0.4212
      2 C           -7.3800   -0.5227   -0.0007 C.2       1 MOL1        0.1553
      3 N           -7.5874   -1.8104    0.0009 N.2       1 MOL1       -0.5812
      4 C           -5.9641   -0.0611   -0.0054 C.ar      1 MOL1       -0.0044
      5 C           -5.6098    1.3076   -0.0052 C.ar      1 MOL1       -0.0652
      6 C           -4.3154    1.6974   -0.0086 C.ar      1 MOL1       -0.0773
      7 C           -3.2895    0.7357   -0.0121 C.ar      1 MOL1       -0.0112
      8 C           -1.9433    1.1196   -0.0130 C.ar      1 MOL1       -0.0453
      9 C           -0.9381    0.1910   -0.0144 C.ar      1 MOL1        0.0086
     10 C           -1.2922   -1.1801   -0.0174 C.ar      1 MOL1       -0.0652
     11 C           -2.5857   -1.5765   -0.0168 C.ar      1 MOL1       -0.0757
     12 C           -3.6212   -0.6233   -0.0131 C.ar      1 MOL1       -0.0126
     13 C           -4.9716   -1.0008   -0.0096 C.ar      1 MOL1       -0.0411
     14 C            0.4720    0.6710   -0.0104 C.2       1 MOL1        0.3240
     15 O            0.6212    1.8902   -0.0245 O.2       1 MOL1       -0.4094
     16 N            1.5050   -0.2075    0.0105 N.am      1 MOL1       -0.2240
     17 C            2.8843    0.0690    0.0310 C.ar      1 MOL1        0.0704
     18 C            3.3682    1.3666    0.0839 C.ar      1 MOL1       -0.1028
     19 C            4.7198    1.6111    0.1089 C.ar      1 MOL1       -0.0816
     20 C            5.6147    0.5654    0.0818 C.ar      1 MOL1       -0.0755
     21 C            7.1108    0.8513    0.1307 C.3       1 MOL1       -0.0134
     22 N            7.9469   -0.2608   -0.3567 N.3       1 MOL1       -0.4226
     23 C            7.5721   -1.5032    0.3386 C.3       1 MOL1       -0.0461
     24 C            6.1202   -1.8982   -0.0065 C.3       1 MOL1       -0.0384
     25 C            5.1458   -0.7320    0.0310 C.ar      1 MOL1       -0.0518
     26 C            3.7930   -0.9758    0.0038 C.ar      1 MOL1       -0.0983
     27  H          -9.2351    0.0922    0.0043 H         1 MOL1        0.2753
     28  H          -8.2402    1.2340    0.0004 H         1 MOL1        0.2753
     29  H          -8.5612   -2.0383    0.0039 H         1 MOL1        0.2200
     30  H          -6.3236    2.0059   -0.0022 H         1 MOL1        0.0910
     31  H          -4.0870    2.6709   -0.0082 H         1 MOL1        0.0910
     32  H          -1.7121    2.0924   -0.0114 H         1 MOL1        0.0914
     33  H          -0.5775   -1.8774   -0.0199 H         1 MOL1        0.0910
     34  H          -2.8073   -2.5516   -0.0186 H         1 MOL1        0.0910
     35  H          -5.2121   -1.9714   -0.0099 H         1 MOL1        0.0914
     36  H           1.2942   -1.0604    0.0141 H         1 MOL1        0.2056
     37  H           2.7331    2.1364    0.1062 H         1 MOL1        0.0919
     38  H           5.0547    2.5524    0.1493 H         1 MOL1        0.0908
     39  H           7.4096    1.0777    1.2707 H         1 MOL1        0.0596
     40  H           7.3558    1.8231   -0.5302 H         1 MOL1        0.0596
     41  H           8.9514   -0.0541   -0.3025 H         1 MOL1        0.2749
     42  H           8.3056   -2.3896   -0.0020 H         1 MOL1        0.0568
     43  H           7.6771   -1.3406    1.5231 H         1 MOL1        0.0568
     44  H           6.1090   -2.3527   -1.1170 H         1 MOL1        0.0503
     45  H           5.7538   -2.7458    0.7599 H         1 MOL1        0.0503
     46  H           3.4615   -1.9185   -0.0353 H         1 MOL1        0.0921
@<TRIPOS>BOND
     1      1      2 am
     2      2      3 2 
     3      2      4 1 
     4      4      5 ar
     5      5      6 ar
     6      6      7 ar
     7      7      8 ar
     8      8      9 ar
     9      9     10 ar
    10      9     14 1 
    11     10     11 ar
    12     11     12 ar
    13     12      7 ar
    14     12     13 ar
    15     13      4 ar
    16     14     15 2 
    17     14     16 am
    18     16     17 1 
    19     17     18 ar
    20     18     19 ar
    21     19     20 ar
    22     20     21 1 
    23     21     22 1 
    24     22     23 1 
    25     23     24 1 
    26     24     25 1 
    27     25     20 ar
    28     25     26 ar
    29     26     17 ar
    30      1     27 1 
    31      1     28 1 
    32      3     29 1 
    33      5     30 1 
    34      6     31 1 
    35      8     32 1 
    36     10     33 1 
    37     11     34 1 
    38     13     35 1 
    39     16     36 1 
    40     18     37 1 
    41     19     38 1 
    42     21     39 1 
    43     21     40 1 
    44     22     41 1 
    45     23     42 1 
    46     23     43 1 
    47     24     44 1 
    48     24     45 1 
    49     26     46 1 
@<TRIPOS>SUBSTRUCTURE
     1 MOL1         1 MOLECULE          1 A
