# Molecule written by the XED library from Cresset
@<TRIPOS>MOLECULE
CHEMBL141259
    47     50      1
SMALL
USER_CHARGES
@<TRIPOS>ATOM
      1 N           -8.9008    1.4693   -0.0002 N.am      1 MOL1       -0.4219
      2 C           -8.2648    0.2720   -0.0002 C.2       1 MOL1        0.1481
      3 N           -8.9178   -0.8580   -0.0011 N.2       1 MOL1       -0.5920
      4 C           -6.7781    0.1968    0.0007 C.ar      1 MOL1       -0.0228
      5 C           -5.9560    1.3471    0.0042 C.ar      1 MOL1       -0.0744
      6 C           -4.5926    1.2649    0.0051 C.ar      1 MOL1       -0.0884
      7 C           -4.0388   -0.0101    0.0025 C.ar      1 MOL1        0.0791
      8 C           -4.8146   -1.1351   -0.0011 C.ar      1 MOL1        0.0236
      9 C           -6.2042   -1.0543   -0.0020 C.ar      1 MOL1       -0.0479
     10 N           -3.9341   -2.1895   -0.0037 N.ar      1 MOL1       -0.4061
     11 C           -2.7072   -1.6989   -0.0018 C.ar      1 MOL1        0.1879
     12 N           -2.7132   -0.3330    0.0026 N.pl3     1 MOL1       -0.1525
     13 C           -1.5640    0.5915    0.0035 C.3       1 MOL1        0.1480
     14 C           -0.1829   -0.0307    0.0091 C.2       1 MOL1        0.3321
     15 O            0.0091   -1.2361    0.0354 O.2       1 MOL1       -0.4128
     16 N            0.7879    0.9018   -0.0156 N.am      1 MOL1       -0.2109
     17 C            2.1736    0.6772   -0.0129 C.ar      1 MOL1        0.0722
     18 C            2.7002   -0.6022   -0.0351 C.ar      1 MOL1       -0.1005
     19 C            4.0567   -0.8013   -0.0314 C.ar      1 MOL1       -0.0775
     20 C            4.9519    0.2619   -0.0059 C.ar      1 MOL1       -0.0454
     21 C            4.4053    1.5408    0.0151 C.ar      1 MOL1       -0.0775
     22 C            3.0487    1.7472    0.0113 C.ar      1 MOL1       -0.1005
     23 C            6.4001    0.0422   -0.0014 C.ar      1 MOL1       -0.0221
     24 C            6.9449   -1.2371    0.0092 C.ar      1 MOL1       -0.0865
     25 C            8.3036   -1.4424    0.0133 C.ar      1 MOL1       -0.0898
     26 C            9.1640   -0.3704    0.0073 C.ar      1 MOL1       -0.0954
     27 C            8.6538    0.9058   -0.0031 C.ar      1 MOL1       -0.0898
     28 C            7.2945    1.1062   -0.0075 C.ar      1 MOL1       -0.0865
     29  H          -9.7800    1.5059   -0.0004 H         1 MOL1        0.2753
     30  H          -8.4441    2.2195   -0.0001 H         1 MOL1        0.2753
     31  H          -9.9090   -0.7245   -0.0018 H         1 MOL1        0.2200
     32  H          -6.3781    2.2520    0.0060 H         1 MOL1        0.0910
     33  H          -4.0192    2.0841    0.0075 H         1 MOL1        0.0919
     34  H          -6.7682   -1.8801   -0.0046 H         1 MOL1        0.0923
     35  H          -1.8806   -2.2604   -0.0033 H         1 MOL1        0.1080
     36  H          -1.6569    1.2870   -0.9700 H         1 MOL1        0.0657
     37  H          -1.6561    1.2932    0.9726 H         1 MOL1        0.0657
     38  H           0.5280    1.7442   -0.0336 H         1 MOL1        0.2055
     39  H           2.0896   -1.3923   -0.0541 H         1 MOL1        0.0919
     40  H           4.3971   -1.7384   -0.0482 H         1 MOL1        0.0910
     41  H           5.0050    2.3373    0.0340 H         1 MOL1        0.0910
     42  H           2.6896    2.6804    0.0268 H         1 MOL1        0.0919
     43  H           6.3453   -2.0338    0.0146 H         1 MOL1        0.0910
     44  H           8.6675   -2.3738    0.0208 H         1 MOL1        0.0906
     45  H          10.1530   -0.5179    0.0104 H         1 MOL1        0.0906
     46  H           9.2734    1.6907   -0.0075 H         1 MOL1        0.0906
     47  H           6.9534    2.0431   -0.0158 H         1 MOL1        0.0910
@<TRIPOS>BOND
     1      1      2 am
     2      2      3 2 
     3      2      4 1 
     4      4      5 ar
     5      5      6 ar
     6      6      7 ar
     7      7      8 ar
     8      8      9 ar
     9      8     10 ar
    10      9      4 ar
    11     10     11 ar
    12     11     12 ar
    13     12      7 ar
    14     12     13 1 
    15     13     14 1 
    16     14     15 2 
    17     14     16 am
    18     16     17 1 
    19     17     18 ar
    20     18     19 ar
    21     19     20 ar
    22     20     21 ar
    23     20     23 1 
    24     21     22 ar
    25     22     17 ar
    26     23     24 ar
    27     24     25 ar
    28     25     26 ar
    29     26     27 ar
    30     27     28 ar
    31     28     23 ar
    32      1     29 1 
    33      1     30 1 
    34      3     31 1 
    35      5     32 1 
    36      6     33 1 
    37      9     34 1 
    38     11     35 1 
    39     13     36 1 
    40     13     37 1 
    41     16     38 1 
    42     18     39 1 
    43     19     40 1 
    44     21     41 1 
    45     22     42 1 
    46     24     43 1 
    47     25     44 1 
    48     26     45 1 
    49     27     46 1 
    50     28     47 1 
@<TRIPOS>SUBSTRUCTURE
     1 MOL1         1 MOLECULE          1 A
