# Molecule written by the XED library from Cresset
@<TRIPOS>MOLECULE
CHEMBL328772
    32     34      1
SMALL
USER_CHARGES
@<TRIPOS>ATOM
      1 N           -6.1943    0.4630    0.0000 N.am      1 MOL1       -0.4220
      2 C           -5.1708   -0.4259   -0.0001 C.2       1 MOL1        0.1473
      3 N           -5.3738   -1.7154    0.0000 N.2       1 MOL1       -0.5935
      4 C           -3.7578    0.0381    0.0000 C.ar      1 MOL1       -0.0266
      5 C           -3.4037    1.4034    0.0000 C.ar      1 MOL1       -0.0765
      6 C           -2.0997    1.8106    0.0000 C.ar      1 MOL1       -0.0936
      7 C           -1.1228    0.8240    0.0000 C.ar      1 MOL1        0.0666
      8 N            0.2237    1.0427    0.0001 N.pl3     1 MOL1       -0.1768
      9 C            0.7786   -0.2224    0.0000 C.ar      1 MOL1        0.0620
     10 C           -0.1803   -1.1696   -0.0001 C.ar      1 MOL1       -0.1486
     11 C           -1.4439   -0.5145   -0.0001 C.ar      1 MOL1       -0.0394
     12 C           -2.7707   -0.9233   -0.0001 C.ar      1 MOL1       -0.0593
     13 C            2.2183   -0.4447    0.0000 C.ar      1 MOL1       -0.0027
     14 C            2.6914   -1.7493    0.0000 C.ar      1 MOL1       -0.0830
     15 C            4.0364   -2.0222    0.0000 C.ar      1 MOL1       -0.1000
     16 C            4.9479   -0.9914    0.0000 C.ar      1 MOL1       -0.0655
     17 C            4.5096    0.3110    0.0001 C.ar      1 MOL1        0.0429
     18 Br           5.7798    1.7016    0.0001 Br        1 MOL1       -0.0843
     19 C            3.1540    0.5905    0.0000 C.ar      1 MOL1        0.0814
     20 O            2.7410    1.8879   -0.0001 O.3       1 MOL1       -0.3746
     21 H            0.6379    1.8173    0.0001 H         1 MOL1        0.2043
     22  H          -7.0279    0.1814    0.0001 H         1 MOL1        0.2753
     23  H          -6.0376    1.3273    0.0001 H         1 MOL1        0.2753
     24  H          -6.3466   -1.9471    0.0002 H         1 MOL1        0.2200
     25  H          -4.1210    2.0981    0.0001 H         1 MOL1        0.0910
     26  H          -1.8584    2.7811    0.0000 H         1 MOL1        0.0919
     27  H          -0.0373   -2.1584   -0.0002 H         1 MOL1        0.0923
     28  H          -3.0050   -1.8955   -0.0001 H         1 MOL1        0.0914
     29  H           2.0434   -2.5093    0.0000 H         1 MOL1        0.0910
     30  H           4.3538   -2.9704    0.0002 H         1 MOL1        0.0906
     31  H           5.9280   -1.1899    0.0001 H         1 MOL1        0.0934
     32  H           3.5202    2.5246    0.0001 H         1 MOL1        0.3295
@<TRIPOS>BOND
     1      1      2 am
     2      2      3 2 
     3      2      4 1 
     4      4      5 ar
     5      5      6 ar
     6      6      7 ar
     7      7      8 ar
     8      8      9 ar
     9      9     10 ar
    10      9     13 1 
    11     10     11 ar
    12     11      7 ar
    13     11     12 ar
    14     12      4 ar
    15     13     14 ar
    16     14     15 ar
    17     15     16 ar
    18     16     17 ar
    19     17     18 1 
    20     17     19 ar
    21     19     13 ar
    22     19     20 1 
    23      1     22 1 
    24      1     23 1 
    25      3     24 1 
    26      5     25 1 
    27      6     26 1 
    28      8     21 1 
    29     10     27 1 
    30     12     28 1 
    31     14     29 1 
    32     15     30 1 
    33     16     31 1 
    34     20     32 1 
@<TRIPOS>SUBSTRUCTURE
     1 MOL1         1 MOLECULE          1 A
