# Molecule written by the XED library from Cresset
@<TRIPOS>MOLECULE
CHEMBL3976496
    46     48      1
SMALL
USER_CHARGES
@<TRIPOS>ATOM
      1 N           -5.7298   -3.6109   -0.1736 N.3       1 MOL1       -0.6086
      2 C           -4.5300   -2.7941    0.0476 C.3       1 MOL1       -0.0191
      3 C           -4.7745   -1.2892    0.0206 C.ar      1 MOL1       -0.0515
      4 C           -6.0607   -0.8047    0.1401 C.ar      1 MOL1       -0.0779
      5 C           -6.3100    0.5473    0.1163 C.ar      1 MOL1       -0.0637
      6 C           -5.2665    1.4311   -0.0311 C.ar      1 MOL1        0.0436
      7 Cl          -5.5719    3.1428   -0.0698 Cl        1 MOL1       -0.1082
      8 C           -3.9801    0.9550   -0.1462 C.ar      1 MOL1       -0.0578
      9 C           -3.7243   -0.3988   -0.1154 C.ar      1 MOL1       -0.0376
     10 C           -2.2763   -0.8563   -0.2429 C.3       1 MOL1        0.0066
     11 N           -1.3187    0.1747    0.2248 N.2       1 MOL1       -0.4054
     12 C           -0.0461    0.0260    0.0842 C.2       1 MOL1        0.2580
     13 O            0.5604   -1.0439   -0.4898 O.3       1 MOL1       -0.3363
     14 C            0.9338    1.0700    0.5645 C.3       1 MOL1        0.1587
     15 C            0.6099    2.4148   -0.1032 C.3       1 MOL1       -0.0574
     16 C            1.9435    3.1644   -0.1242 C.3       1 MOL1       -0.0686
     17 C            2.9861    2.0685   -0.3809 C.3       1 MOL1        0.0726
     18 N            2.3506    0.8740    0.2019 N.am      1 MOL1       -0.3986
     19 C            2.9939   -0.2978    0.4122 C.2       1 MOL1        0.3523
     20 O            2.4347   -1.3084    0.8232 O.2       1 MOL1       -0.3786
     21 C            4.4553   -0.4668    0.1551 C.ar      1 MOL1        0.1963
     22 N            4.8824   -1.7441    0.0998 N.ar      1 MOL1       -0.2957
     23 C            6.1955   -1.8874   -0.1263 C.ar      1 MOL1        0.0801
     24 C            7.0357   -0.8189   -0.2828 C.ar      1 MOL1       -0.0542
     25 C            6.5002    0.4375   -0.2027 C.ar      1 MOL1        0.0801
     26 N            5.1959    0.6506    0.0184 N.ar      1 MOL1       -0.2957
     27 H            0.8523    1.1846    1.7565 H         1 MOL1        0.0671
     28  H          -6.4771   -3.4044    0.5001 H         1 MOL1        0.2740
     29  H          -5.5156   -4.6136   -0.2198 H         1 MOL1        0.2740
     30  H          -4.0556   -3.0839    1.1111 H         1 MOL1        0.0594
     31  H          -3.7447   -3.0707   -0.8166 H         1 MOL1        0.0594
     32  H          -6.8216   -1.4456    0.2437 H         1 MOL1        0.0908
     33  H          -7.2469    0.8862    0.2046 H         1 MOL1        0.0939
     34  H          -3.2219    1.5985   -0.2513 H         1 MOL1        0.0941
     35  H          -2.0461   -1.1133   -1.3923 H         1 MOL1        0.0620
     36  H          -2.0963   -1.8366    0.4252 H         1 MOL1        0.0620
     37  H          -0.1131   -1.7265   -0.7930 H         1 MOL1        0.3296
     38  H          -0.2324    3.0211    0.4991 H         1 MOL1        0.0479
     39  H           0.2529    2.2173   -1.2318 H         1 MOL1        0.0479
     40  H           2.1325    3.6481    0.9578 H         1 MOL1        0.0474
     41  H           1.9686    4.0152   -0.9704 H         1 MOL1        0.0474
     42  H           4.0170    2.3538    0.1615 H         1 MOL1        0.0593
     43  H           3.1470    1.9153   -1.5599 H         1 MOL1        0.0593
     44  H           6.5762   -2.8105   -0.1820 H         1 MOL1        0.0995
     45  H           8.0124   -0.9522   -0.4501 H         1 MOL1        0.0924
     46  H           7.1046    1.2264   -0.3137 H         1 MOL1        0.0995
@<TRIPOS>BOND
     1      1      2 1 
     2      2      3 1 
     3      3      4 ar
     4      4      5 ar
     5      5      6 ar
     6      6      7 1 
     7      6      8 ar
     8      8      9 ar
     9      9      3 ar
    10      9     10 1 
    11     10     11 1 
    12     11     12 2 
    13     12     13 1 
    14     12     14 1 
    15     14     15 1 
    16     15     16 1 
    17     16     17 1 
    18     17     18 1 
    19     18     14 1 
    20     18     19 am
    21     19     20 2 
    22     19     21 1 
    23     21     22 ar
    24     22     23 ar
    25     23     24 ar
    26     24     25 ar
    27     25     26 ar
    28     26     21 ar
    29      1     28 1 
    30      1     29 1 
    31      2     30 1 
    32      2     31 1 
    33      4     32 1 
    34      5     33 1 
    35      8     34 1 
    36     10     35 1 
    37     10     36 1 
    38     13     37 1 
    39     14     27 1 
    40     15     38 1 
    41     15     39 1 
    42     16     40 1 
    43     16     41 1 
    44     17     42 1 
    45     17     43 1 
    46     23     44 1 
    47     24     45 1 
    48     25     46 1 
@<TRIPOS>SUBSTRUCTURE
     1 MOL1         1 MOLECULE          1 A
