# Molecule written by the XED library from Cresset
@<TRIPOS>MOLECULE
CHEMBL62509
    51     54      1
SMALL
USER_CHARGES
@<TRIPOS>ATOM
      1 C            5.5309   -4.7556   -0.5618 C.3       1 MOL1       -0.1200
      2 C            4.8703   -3.3700   -0.4825 C.3       1 MOL1       -0.0683
      3 C            4.4536   -3.0711    0.9691 C.3       1 MOL1       -0.0843
      4 C            3.6425   -1.7560    1.0290 C.3       1 MOL1       -0.0630
      5 C            4.1434   -0.6585    0.0446 C.3       1 MOL1       -0.0102
      6 C            5.6253   -0.9087   -0.3187 C.3       1 MOL1       -0.0630
      7 C            5.8374   -2.2820   -1.0005 C.3       1 MOL1       -0.0843
      8 O            4.0513    0.6718    0.6122 O.3       1 MOL1       -0.1955
      9 C            3.0212    1.4852    0.3028 C.ar      1 MOL1        0.0699
     10 C            3.2906    2.8272    0.1489 C.ar      1 MOL1       -0.0684
     11 C            2.2812    3.7259   -0.1233 C.ar      1 MOL1       -0.1008
     12 C            0.9837    3.2971   -0.2243 C.ar      1 MOL1       -0.0765
     13 C            0.6722    1.9532   -0.0669 C.ar      1 MOL1        0.0056
     14 C            1.7029    1.0493    0.1760 C.ar      1 MOL1        0.0890
     15 O            1.4158   -0.2727    0.3137 O.3       1 MOL1       -0.3757
     16 C           -0.6948    1.4838   -0.1200 C.ar      1 MOL1        0.2149
     17 N           -1.0635    0.2056   -0.0257 N.ar      1 MOL1       -0.4002
     18 C           -2.4335    0.1400   -0.0681 C.ar      1 MOL1        0.0180
     19 C           -3.3386   -0.9116    0.0020 C.ar      1 MOL1       -0.0467
     20 C           -4.6959   -0.6439   -0.0566 C.ar      1 MOL1       -0.0007
     21 C           -5.6841   -1.7809    0.0132 C.2       1 MOL1        0.1496
     22 N           -5.3099   -3.0337   -0.0409 N.2       1 MOL1       -0.5970
     23 N           -7.0088   -1.5362    0.1364 N.am      1 MOL1       -0.4229
     24 C           -5.0851    0.7230   -0.1765 C.ar      1 MOL1        0.1292
     25 F           -6.3693    1.0851   -0.2289 F         1 MOL1       -0.1424
     26 C           -4.1913    1.7591   -0.2458 C.ar      1 MOL1       -0.0725
     27 C           -2.8506    1.4292   -0.1914 C.ar      1 MOL1        0.0863
     28 N           -1.7713    2.2901   -0.2332 N.pl3     1 MOL1       -0.1593
     29 H            3.8799   -3.3876   -1.1608 H         1 MOL1        0.0485
     30 H            3.5238   -0.7209   -0.9818 H         1 MOL1        0.0667
     31 H           -1.7870    3.1670   -0.3044 H         1 MOL1        0.2049
     32  H           4.7412   -5.5961   -0.2288 H         1 MOL1        0.0435
     33  H           5.8898   -4.9641   -1.6878 H         1 MOL1        0.0435
     34  H           6.4783   -4.7851    0.1735 H         1 MOL1        0.0435
     35  H           5.4448   -2.9458    1.6353 H         1 MOL1        0.0463
     36  H           3.7958   -3.9807    1.3969 H         1 MOL1        0.0463
     37  H           2.5084   -2.0406    0.7587 H         1 MOL1        0.0482
     38  H           3.6738   -1.3515    2.1584 H         1 MOL1        0.0482
     39  H           6.2663   -0.8722    0.6971 H         1 MOL1        0.0482
     40  H           6.0297   -0.0516   -1.0572 H         1 MOL1        0.0482
     41  H           6.9706   -2.6188   -0.7953 H         1 MOL1        0.0463
     42  H           5.6859   -2.1676   -2.1861 H         1 MOL1        0.0463
     43  H           4.2310    3.1560    0.2380 H         1 MOL1        0.0924
     44  H           2.4948    4.6956   -0.2379 H         1 MOL1        0.0906
     45  H           0.2581    3.9598   -0.4069 H         1 MOL1        0.0910
     46  H           0.5094   -0.5019   -0.0527 H         1 MOL1        0.3295
     47  H          -2.9866   -1.8372    0.0998 H         1 MOL1        0.0923
     48  H          -4.3333   -3.1711   -0.1545 H         1 MOL1        0.2200
     49  H          -7.3216   -0.7233    0.2191 H         1 MOL1        0.2753
     50  H          -7.5704   -2.2135    0.1389 H         1 MOL1        0.2753
     51  H          -4.4949    2.7083   -0.3289 H         1 MOL1        0.0944
@<TRIPOS>BOND
     1      1      2 1 
     2      2      3 1 
     3      3      4 1 
     4      4      5 1 
     5      5      6 1 
     6      5      8 1 
     7      6      7 1 
     8      7      2 1 
     9      8      9 1 
    10      9     10 ar
    11     10     11 ar
    12     11     12 ar
    13     12     13 ar
    14     13     14 ar
    15     13     16 1 
    16     14      9 ar
    17     14     15 1 
    18     16     17 ar
    19     17     18 ar
    20     18     19 ar
    21     19     20 ar
    22     20     21 1 
    23     20     24 ar
    24     21     22 2 
    25     21     23 am
    26     24     25 1 
    27     24     26 ar
    28     26     27 ar
    29     27     18 ar
    30     27     28 ar
    31     28     16 ar
    32      1     32 1 
    33      1     33 1 
    34      1     34 1 
    35      2     29 1 
    36      3     35 1 
    37      3     36 1 
    38      4     37 1 
    39      4     38 1 
    40      5     30 1 
    41      6     39 1 
    42      6     40 1 
    43      7     41 1 
    44      7     42 1 
    45     10     43 1 
    46     11     44 1 
    47     12     45 1 
    48     15     46 1 
    49     19     47 1 
    50     22     48 1 
    51     23     49 1 
    52     23     50 1 
    53     26     51 1 
    54     28     31 1 
@<TRIPOS>SUBSTRUCTURE
     1 MOL1         1 MOLECULE          1 A
