# Molecule written by the XED library from Cresset
@<TRIPOS>MOLECULE
CHEMBL149960
    46     48      1
SMALL
USER_CHARGES
@<TRIPOS>ATOM
      1 N           -8.0273   -1.3878   -0.3634 N.am      1 MOL1       -0.4216
      2 C           -6.7606   -1.7515   -0.0447 C.2       1 MOL1        0.1561
      3 N           -6.4383   -2.9878    0.2186 N.2       1 MOL1       -0.5779
      4 C           -5.6781   -0.7337    0.0317 C.ar      1 MOL1       -0.0026
      5 C           -5.8312    0.5640   -0.4389 C.ar      1 MOL1       -0.0581
      6 C           -4.8078    1.4695   -0.3354 C.ar      1 MOL1       -0.0722
      7 C           -3.5930    1.1113    0.2285 C.ar      1 MOL1       -0.0127
      8 C           -2.5673    2.1691    0.3275 C.2       1 MOL1       -0.0303
      9 C           -1.2280    2.0186    0.2304 C.2       1 MOL1       -0.0275
     10 C           -0.1892    3.0878    0.4262 C.3       1 MOL1       -0.0406
     11 C            1.1687    2.3593    0.3230 C.3       1 MOL1       -0.0406
     12 C            0.8915    0.9020    0.0114 C.2       1 MOL1       -0.0275
     13 C            1.6357   -0.2081   -0.1878 C.2       1 MOL1       -0.0303
     14 C            3.1136   -0.2629   -0.1359 C.ar      1 MOL1       -0.0127
     15 C            3.7213   -1.4944   -0.3351 C.ar      1 MOL1       -0.0722
     16 C            5.0864   -1.6199   -0.3005 C.ar      1 MOL1       -0.0581
     17 C            5.8985   -0.5189   -0.0651 C.ar      1 MOL1       -0.0026
     18 C            5.2903    0.7123    0.1374 C.ar      1 MOL1       -0.0581
     19 C            3.9251    0.8384    0.1015 C.ar      1 MOL1       -0.0722
     20 C            7.3814   -0.6683   -0.0216 C.2       1 MOL1        0.1561
     21 N            8.1683    0.2805   -0.4519 N.2       1 MOL1       -0.5779
     22 N            7.9071   -1.8100    0.4734 N.am      1 MOL1       -0.4216
     23 C           -0.5453    0.7804   -0.0633 C.2       1 MOL1        0.1802
     24 O           -1.0307   -0.2949   -0.3856 O.2       1 MOL1       -0.3945
     25 C           -3.4408   -0.1817    0.7071 C.ar      1 MOL1       -0.0722
     26 C           -4.4654   -1.0872    0.6044 C.ar      1 MOL1       -0.0581
     27  H          -8.6633   -1.9932   -0.4239 H         1 MOL1        0.2753
     28  H          -8.2275   -0.5439   -0.5057 H         1 MOL1        0.2753
     29  H          -7.2202   -3.6078    0.1528 H         1 MOL1        0.2200
     30  H          -6.6932    0.8474   -0.8567 H         1 MOL1        0.0910
     31  H          -4.9384    2.4022   -0.6712 H         1 MOL1        0.0910
     32  H          -2.8951    3.0915    0.4783 H         1 MOL1        0.0912
     33  H          -0.3362    3.5813    1.5106 H         1 MOL1        0.0495
     34  H          -0.3018    3.9274   -0.4250 H         1 MOL1        0.0495
     35  H           1.8130    2.8578   -0.5592 H         1 MOL1        0.0495
     36  H           1.7514    2.4464    1.3690 H         1 MOL1        0.0495
     37  H           1.1533   -1.0506   -0.3805 H         1 MOL1        0.0912
     38  H           3.1559   -2.3013   -0.5054 H         1 MOL1        0.0910
     39  H           5.5009   -2.5179   -0.4476 H         1 MOL1        0.0910
     40  H           5.8500    1.5202    0.3183 H         1 MOL1        0.0910
     41  H           3.5166    1.7348    0.2500 H         1 MOL1        0.0910
     42  H           7.6718    1.0669   -0.8172 H         1 MOL1        0.2200
     43  H           7.3868   -2.4484    0.7851 H         1 MOL1        0.2753
     44  H           8.7802   -1.9138    0.4887 H         1 MOL1        0.2753
     45  H          -2.5796   -0.4571    1.1337 H         1 MOL1        0.0910
     46  H          -4.3387   -2.0167    0.9508 H         1 MOL1        0.0910
@<TRIPOS>BOND
     1      1      2 am
     2      2      3 2 
     3      2      4 1 
     4      4      5 ar
     5      5      6 ar
     6      6      7 ar
     7      7      8 1 
     8      7     25 ar
     9      8      9 2 
    10      9     10 1 
    11      9     23 1 
    12     10     11 1 
    13     11     12 1 
    14     12     13 2 
    15     12     23 1 
    16     13     14 1 
    17     14     15 ar
    18     15     16 ar
    19     16     17 ar
    20     17     18 ar
    21     17     20 1 
    22     18     19 ar
    23     19     14 ar
    24     20     21 2 
    25     20     22 am
    26     23     24 2 
    27     25     26 ar
    28     26      4 ar
    29      1     27 1 
    30      1     28 1 
    31      3     29 1 
    32      5     30 1 
    33      6     31 1 
    34      8     32 1 
    35     10     33 1 
    36     10     34 1 
    37     11     35 1 
    38     11     36 1 
    39     13     37 1 
    40     15     38 1 
    41     16     39 1 
    42     18     40 1 
    43     19     41 1 
    44     21     42 1 
    45     22     43 1 
    46     22     44 1 
    47     25     45 1 
    48     26     46 1 
@<TRIPOS>SUBSTRUCTURE
     1 MOL1         1 MOLECULE          1 A
