# Molecule written by the XED library from Cresset
@<TRIPOS>MOLECULE
CHEMBL62588
    46     49      1
SMALL
USER_CHARGES
@<TRIPOS>ATOM
      1 N            5.8147   -3.2994   -0.0337 N.am      1 MOL1       -0.4236
      2 C            6.1639   -1.9875   -0.0341 C.2       1 MOL1        0.1483
      3 N            7.4158   -1.6154   -0.0499 N.2       1 MOL1       -0.5957
      4 C            5.1217   -0.9231   -0.0120 C.ar      1 MOL1        0.0010
      5 C            3.7753   -1.2458   -0.0466 C.ar      1 MOL1       -0.0587
      6 C            2.8665   -0.2063   -0.0155 C.ar      1 MOL1        0.0634
      7 N            1.4806   -0.3107   -0.0382 N.pl3     1 MOL1       -0.1632
      8 C            1.0426    0.9531    0.0205 C.ar      1 MOL1        0.2270
      9 N            2.0647    1.8143    0.0739 N.ar      1 MOL1       -0.3995
     10 C            3.2380    1.1045    0.0496 C.ar      1 MOL1        0.0368
     11 C            4.5864    1.4587    0.0791 C.ar      1 MOL1       -0.0664
     12 C            5.5000    0.4431    0.0467 C.ar      1 MOL1        0.1227
     13 F            6.7954    0.7821    0.0744 F         1 MOL1       -0.1436
     14 C           -0.3554    1.3198    0.0333 C.ar      1 MOL1        0.0056
     15 C           -0.6487    2.6649    0.2104 C.ar      1 MOL1       -0.0741
     16 C           -1.9466    3.0992    0.2461 C.ar      1 MOL1       -0.1007
     17 C           -2.9804    2.1987    0.0997 C.ar      1 MOL1       -0.0664
     18 C           -2.7237    0.8539   -0.0896 C.ar      1 MOL1        0.0703
     19 O           -3.7033   -0.0529   -0.2547 O.3       1 MOL1       -0.1957
     20 C           -5.0793    0.3627   -0.1192 C.3       1 MOL1        0.0026
     21 C           -6.0489   -0.8040   -0.3823 C.3       1 MOL1        0.0102
     22 C           -5.9237   -1.9317    0.6507 C.3       1 MOL1       -0.0577
     23 C           -7.2928   -2.6157    0.5509 C.3       1 MOL1       -0.0635
     24 C           -8.2394   -1.4901    0.0939 C.3       1 MOL1       -0.0305
     25 O           -7.4154   -0.3762   -0.2911 O.3       1 MOL1       -0.2511
     26 C           -1.4045    0.4179   -0.1185 C.ar      1 MOL1        0.0913
     27 O           -1.1411   -0.9072   -0.2992 O.3       1 MOL1       -0.3753
     28 H            1.0050   -1.0488   -0.0761 H         1 MOL1        0.2049
     29  H           6.4339   -3.9243   -0.0521 H         1 MOL1        0.2753
     30  H           4.9710   -3.5409   -0.0140 H         1 MOL1        0.2753
     31  H           8.0443   -2.3930   -0.0628 H         1 MOL1        0.2200
     32  H           3.4624   -2.1926   -0.0913 H         1 MOL1        0.0923
     33  H           4.8720    2.4162    0.1228 H         1 MOL1        0.0944
     34  H           0.0952    3.3247    0.3166 H         1 MOL1        0.0910
     35  H          -2.1448    4.0705    0.3790 H         1 MOL1        0.0906
     36  H          -3.9228    2.5287    0.1297 H         1 MOL1        0.0924
     37  H          -5.3239    1.2106   -0.9321 H         1 MOL1        0.0662
     38  H          -5.2606    0.7935    0.9858 H         1 MOL1        0.0662
     39  H          -5.8586   -1.2569   -1.4771 H         1 MOL1        0.0681
     40  H          -5.0231   -2.6816    0.3923 H         1 MOL1        0.0482
     41  H          -5.7865   -1.4575    1.7446 H         1 MOL1        0.0482
     42  H          -7.2362   -3.4713   -0.2893 H         1 MOL1        0.0479
     43  H          -7.6252   -3.0881    1.6029 H         1 MOL1        0.0479
     44  H          -8.9077   -1.8498   -0.8365 H         1 MOL1        0.0640
     45  H          -8.9546   -1.1572    0.9986 H         1 MOL1        0.0640
     46  H          -1.9829   -1.4500   -0.3853 H         1 MOL1        0.3295
@<TRIPOS>BOND
     1      1      2 am
     2      2      3 2 
     3      2      4 1 
     4      4      5 ar
     5      5      6 ar
     6      6      7 ar
     7      7      8 ar
     8      8      9 ar
     9      8     14 1 
    10      9     10 ar
    11     10      6 ar
    12     10     11 ar
    13     11     12 ar
    14     12      4 ar
    15     12     13 1 
    16     14     15 ar
    17     15     16 ar
    18     16     17 ar
    19     17     18 ar
    20     18     19 1 
    21     18     26 ar
    22     19     20 1 
    23     20     21 1 
    24     21     22 1 
    25     22     23 1 
    26     23     24 1 
    27     24     25 1 
    28     25     21 1 
    29     26     14 ar
    30     26     27 1 
    31      1     29 1 
    32      1     30 1 
    33      3     31 1 
    34      5     32 1 
    35      7     28 1 
    36     11     33 1 
    37     15     34 1 
    38     16     35 1 
    39     17     36 1 
    40     20     37 1 
    41     20     38 1 
    42     21     39 1 
    43     22     40 1 
    44     22     41 1 
    45     23     42 1 
    46     23     43 1 
    47     24     44 1 
    48     24     45 1 
    49     27     46 1 
@<TRIPOS>SUBSTRUCTURE
     1 MOL1         1 MOLECULE          1 A
