# Molecule written by the XED library from Cresset
@<TRIPOS>MOLECULE
CHEMBL196178
    40     41      1
SMALL
USER_CHARGES
@<TRIPOS>ATOM
      1 N           -5.6628   -2.7675    0.0747 N.3       1 MOL1       -0.6086
      2 C           -4.3790   -2.0905   -0.1452 C.3       1 MOL1       -0.0191
      3 C           -4.4341   -0.5650   -0.0975 C.ar      1 MOL1       -0.0513
      4 C           -5.6526    0.0609   -0.2586 C.ar      1 MOL1       -0.0779
      5 C           -5.7542    1.4302   -0.2030 C.ar      1 MOL1       -0.0637
      6 C           -4.6275    2.1876    0.0169 C.ar      1 MOL1        0.0436
      7 Cl          -4.7515    3.9198    0.1167 Cl        1 MOL1       -0.1082
      8 C           -3.4050    1.5705    0.1631 C.ar      1 MOL1       -0.0576
      9 C           -3.2931    0.1964    0.1013 C.ar      1 MOL1       -0.0323
     10 C           -1.9391   -0.4905    0.2721 C.3       1 MOL1        0.1153
     11 N           -0.6990    0.2782    0.0708 N.am      1 MOL1       -0.3837
     12 C            0.4643   -0.3928    0.0584 C.2       1 MOL1        0.2989
     13 O            0.5316   -1.6064    0.1818 O.2       1 MOL1       -0.4204
     14 C            1.6526    0.5356   -0.1233 C.3       1 MOL1        0.0422
     15 C            3.1195    0.0758   -0.0642 C.ar      1 MOL1        0.0673
     16 C            3.6269   -1.2083   -0.0442 C.ar      1 MOL1        0.0080
     17 C            5.0197   -1.4014    0.0085 C.ar      1 MOL1       -0.0777
     18 C            5.8607   -0.3397    0.0332 C.ar      1 MOL1       -0.1104
     19 C            5.3312    0.9472    0.0047 C.ar      1 MOL1        0.1489
     20 N            6.1686    2.0318    0.0221 N.pl3     1 MOL1       -0.4230
     21 N            3.9854    1.1332   -0.0428 N.pl3     1 MOL1        0.1533
     22 O            3.5639    2.2905   -0.0727 O.co2     1 MOL1       -0.4548
     23 C            2.8403   -2.4132   -0.0763 C.1       1 MOL1        0.3854
     24 N            2.2189   -3.3641   -0.1001 N.1       1 MOL1       -0.4973
     25  H          -6.3904   -2.4490   -0.5749 H         1 MOL1        0.2740
     26  H          -5.5681   -3.7897    0.0797 H         1 MOL1        0.2740
     27  H          -3.9449   -2.4309   -1.2109 H         1 MOL1        0.0594
     28  H          -3.6400   -2.4846    0.7135 H         1 MOL1        0.0594
     29  H          -6.4740   -0.4894   -0.4120 H         1 MOL1        0.0908
     30  H          -6.6432    1.8729   -0.3161 H         1 MOL1        0.0939
     31  H          -2.5917    2.1289    0.3201 H         1 MOL1        0.0941
     32  H          -1.8700   -1.3944   -0.5147 H         1 MOL1        0.0620
     33  H          -1.8938   -0.9482    1.3805 H         1 MOL1        0.0620
     34  H          -0.7206    1.1525   -0.0303 H         1 MOL1        0.2040
     35  H           1.5462    1.3677    0.7360 H         1 MOL1        0.0571
     36  H           1.5058    1.0895   -1.1776 H         1 MOL1        0.0571
     37  H           5.3905   -2.3297    0.0271 H         1 MOL1        0.0914
     38  H           6.8502   -0.4794    0.0700 H         1 MOL1        0.0929
     39  H           7.0416    1.9174    0.0510 H         1 MOL1        0.2754
     40  H           5.8373    2.8476    0.0039 H         1 MOL1        0.2754
@<TRIPOS>BOND
     1      1      2 1 
     2      2      3 1 
     3      3      4 ar
     4      4      5 ar
     5      5      6 ar
     6      6      7 1 
     7      6      8 ar
     8      8      9 ar
     9      9      3 ar
    10      9     10 1 
    11     10     11 1 
    12     11     12 am
    13     12     13 2 
    14     12     14 1 
    15     14     15 1 
    16     15     16 ar
    17     16     17 ar
    18     16     23 1 
    19     17     18 ar
    20     18     19 ar
    21     19     20 1 
    22     19     21 ar
    23     21     15 ar
    24     21     22 1 
    25     23     24 3 
    26      1     25 1 
    27      1     26 1 
    28      2     27 1 
    29      2     28 1 
    30      4     29 1 
    31      5     30 1 
    32      8     31 1 
    33     10     32 1 
    34     10     33 1 
    35     11     34 1 
    36     14     35 1 
    37     14     36 1 
    38     17     37 1 
    39     18     38 1 
    40     20     39 1 
    41     20     40 1 
@<TRIPOS>SUBSTRUCTURE
     1 MOL1         1 MOLECULE          1 A
