# Molecule written by the XED library from Cresset
@<TRIPOS>MOLECULE
CHEMBL332587
    43     44      1
SMALL
USER_CHARGES
@<TRIPOS>ATOM
      1 N            4.8688    2.5365    0.0728 N.3       1 MOL1       -0.5866
      2 C            4.6242    1.1408   -0.2991 C.3       1 MOL1        0.0318
      3 C            5.3000    0.2288    0.7385 C.3       1 MOL1       -0.0545
      4 C            5.1598   -1.2408    0.3047 C.3       1 MOL1       -0.0512
      5 C            3.8232   -1.4926   -0.4254 C.3       1 MOL1        0.1525
      6 S            3.0205   -2.9624    0.2549 S.3       1 MOL1       -0.1808
      7 C            1.4608   -2.1156    0.5958 C.3       1 MOL1        0.0219
      8 C            1.4147   -0.9107   -0.3606 C.3       1 MOL1        0.1723
      9 N            2.8081   -0.4261   -0.3480 N.am      1 MOL1       -0.3800
     10 C            3.1316    0.8840   -0.3250 C.2       1 MOL1        0.2930
     11 O            2.3313    1.8084   -0.3130 O.2       1 MOL1       -0.4176
     12 C            0.3214    0.0554    0.0512 C.2       1 MOL1        0.3266
     13 O            0.5465    1.1135    0.6222 O.2       1 MOL1       -0.4176
     14 N           -0.8997   -0.3820   -0.2997 N.am      1 MOL1       -0.3858
     15 C           -2.0801    0.4482   -0.0271 C.3       1 MOL1        0.0728
     16 C           -3.3671   -0.3932   -0.0529 C.3       1 MOL1       -0.0551
     17 C           -4.5919    0.5314    0.0214 C.3       1 MOL1       -0.0359
     18 N           -5.8301   -0.2863   -0.0015 N.2       1 MOL1       -0.5459
     19 C           -7.0270    0.2516    0.0208 C.2       1 MOL1        0.1545
     20 N           -8.1304   -0.5234   -0.0025 N.am      1 MOL1       -0.4064
     21 N           -7.2339    1.5871    0.0675 N.am      1 MOL1       -0.4064
     22 H            5.0892    0.9298   -1.3851 H         1 MOL1        0.0651
     23 H            4.0393   -1.6910   -1.5897 H         1 MOL1        0.0694
     24 H            1.1971   -1.3107   -1.4711 H         1 MOL1        0.0696
     25  H           5.8699    2.7447    0.1694 H         1 MOL1        0.2741
     26  H           4.3924    3.1986   -0.5508 H         1 MOL1        0.2741
     27  H           4.7520    0.3814    1.7950 H         1 MOL1        0.0476
     28  H           6.4618    0.5089    0.8465 H         1 MOL1        0.0476
     29  H           6.0721   -1.5165   -0.4258 H         1 MOL1        0.0496
     30  H           5.2235   -1.9396    1.2781 H         1 MOL1        0.0496
     31  H           1.4661   -1.7237    1.7301 H         1 MOL1        0.0562
     32  H           0.5251   -2.8450    0.4154 H         1 MOL1        0.0562
     33  H          -0.9968   -1.1581   -0.7049 H         1 MOL1        0.2039
     34  H          -2.1530    1.3010   -0.8681 H         1 MOL1        0.0590
     35  H          -1.9660    0.9655    1.0496 H         1 MOL1        0.0590
     36  H          -3.4097   -1.0196   -1.0755 H         1 MOL1        0.0487
     37  H          -3.3716   -1.1499    0.8783 H         1 MOL1        0.0487
     38  H          -4.5450    1.1707    1.0359 H         1 MOL1        0.0590
     39  H          -4.5730    1.2668   -0.9269 H         1 MOL1        0.0590
     40  H          -8.0485   -1.3991   -0.0314 H         1 MOL1        0.2755
     41  H          -8.9319   -0.1603    0.0111 H         1 MOL1        0.2755
     42  H          -6.5524    2.1414    0.0934 H         1 MOL1        0.2755
     43  H          -8.0530    1.9084    0.0731 H         1 MOL1        0.2755
@<TRIPOS>BOND
     1      1      2 1 
     2      2      3 1 
     3      3      4 1 
     4      4      5 1 
     5      5      6 1 
     6      6      7 1 
     7      7      8 1 
     8      8      9 1 
     9      8     12 1 
    10      9      5 1 
    11      9     10 am
    12     10      2 1 
    13     10     11 2 
    14     12     13 2 
    15     12     14 am
    16     14     15 1 
    17     15     16 1 
    18     16     17 1 
    19     17     18 1 
    20     18     19 2 
    21     19     20 am
    22     19     21 am
    23      1     25 1 
    24      1     26 1 
    25      2     22 1 
    26      3     27 1 
    27      3     28 1 
    28      4     29 1 
    29      4     30 1 
    30      5     23 1 
    31      7     31 1 
    32      7     32 1 
    33      8     24 1 
    34     14     33 1 
    35     15     34 1 
    36     15     35 1 
    37     16     36 1 
    38     16     37 1 
    39     17     38 1 
    40     17     39 1 
    41     20     40 1 
    42     20     41 1 
    43     21     42 1 
    44     21     43 1 
@<TRIPOS>SUBSTRUCTURE
     1 MOL1         1 MOLECULE          1 A
