# Molecule written by the XED library from Cresset
@<TRIPOS>MOLECULE
CHEMBL442201
    55     58      1
SMALL
USER_CHARGES
@<TRIPOS>ATOM
      1 C           -5.6909   -3.6970   -0.1194 C.3       1 MOL1       -0.1175
      2 C           -4.7214   -2.5295   -0.4036 C.3       1 MOL1       -0.0513
      3 C           -3.3241   -2.9947    0.0598 C.3       1 MOL1       -0.1175
      4 C           -5.2255   -1.2257    0.2878 C.3       1 MOL1        0.0082
      5 N           -6.6243   -1.0798   -0.1750 N.3       1 MOL1       -0.4151
      6 C           -7.2665    0.0657    0.4851 C.3       1 MOL1       -0.0457
      7 C           -6.6276    1.3522   -0.0646 C.3       1 MOL1       -0.0392
      8 C           -5.1099    1.2959   -0.0408 C.ar      1 MOL1       -0.0806
      9 C           -4.4199    2.4798   -0.1827 C.ar      1 MOL1       -0.0832
     10 C           -3.0475    2.4891   -0.1586 C.ar      1 MOL1       -0.1028
     11 C           -2.3490    1.3089    0.0143 C.ar      1 MOL1        0.0706
     12 N           -0.9423    1.3255    0.0359 N.am      1 MOL1       -0.2240
     13 C           -0.0959    0.2663   -0.0044 C.2       1 MOL1        0.3240
     14 O           -0.4768   -0.8997   -0.0669 O.2       1 MOL1       -0.4094
     15 C            1.3806    0.4628    0.0094 C.ar      1 MOL1        0.0086
     16 C            1.9958    1.7382    0.0196 C.ar      1 MOL1       -0.0652
     17 C            3.3422    1.8742    0.0230 C.ar      1 MOL1       -0.0757
     18 C            4.1728    0.7376    0.0165 C.ar      1 MOL1       -0.0126
     19 C            5.5709    0.8453    0.0151 C.ar      1 MOL1       -0.0411
     20 C            6.3860   -0.2582    0.0064 C.ar      1 MOL1       -0.0044
     21 C            5.7519   -1.5269    0.0010 C.ar      1 MOL1       -0.0652
     22 C            4.4071   -1.6624    0.0026 C.ar      1 MOL1       -0.0773
     23 C            3.5812   -0.5273    0.0092 C.ar      1 MOL1       -0.0112
     24 C            2.1863   -0.6435    0.0058 C.ar      1 MOL1       -0.0453
     25 C            7.8828   -0.1034    0.0017 C.2       1 MOL1        0.1553
     26 N            8.6896   -1.1317    0.0027 N.2       1 MOL1       -0.5812
     27 N            8.4289    1.1348   -0.0044 N.am      1 MOL1       -0.4212
     28 C           -3.0638    0.1316    0.1642 C.ar      1 MOL1       -0.0963
     29 C           -4.4402    0.0942    0.1196 C.ar      1 MOL1       -0.0441
     30  H          -6.8079   -3.3913   -0.4327 H         1 MOL1        0.0435
     31  H          -5.6649   -3.9609    1.0509 H         1 MOL1        0.0435
     32  H          -5.3726   -4.6639   -0.7551 H         1 MOL1        0.0435
     33  H          -4.6994   -2.3541   -1.5906 H         1 MOL1        0.0498
     34  H          -3.2015   -4.1845   -0.0409 H         1 MOL1        0.0435
     35  H          -3.1544   -2.6878    1.2075 H         1 MOL1        0.0435
     36  H          -2.4794   -2.5033   -0.6364 H         1 MOL1        0.0435
     37  H          -5.2496   -1.4571    1.4650 H         1 MOL1        0.0623
     38  H          -6.7086   -1.0449   -1.1981 H         1 MOL1        0.2750
     39  H          -8.4381    0.0718    0.2256 H         1 MOL1        0.0568
     40  H          -7.1268    0.0081    1.6756 H         1 MOL1        0.0568
     41  H          -7.0190    2.2817    0.5866 H         1 MOL1        0.0503
     42  H          -6.9801    1.4987   -1.2022 H         1 MOL1        0.0503
     43  H          -4.9212    3.3368   -0.3026 H         1 MOL1        0.0908
     44  H          -2.5521    3.3513   -0.2646 H         1 MOL1        0.0919
     45  H          -0.5745    2.1231    0.0645 H         1 MOL1        0.2056
     46  H           1.4307    2.5614    0.0229 H         1 MOL1        0.0910
     47  H           3.7496    2.7874    0.0290 H         1 MOL1        0.0910
     48  H           5.9723    1.7582    0.0198 H         1 MOL1        0.0914
     49  H           6.2969   -2.3605   -0.0048 H         1 MOL1        0.0910
     50  H           3.9986   -2.5752   -0.0018 H         1 MOL1        0.0910
     51  H           1.7712   -1.5532   -0.0014 H         1 MOL1        0.0914
     52  H           8.2286   -2.0119    0.0081 H         1 MOL1        0.2200
     53  H           7.9322    1.8573   -0.0070 H         1 MOL1        0.2753
     54  H           9.3051    1.2166   -0.0062 H         1 MOL1        0.2753
     55  H          -2.5647   -0.7144    0.3128 H         1 MOL1        0.0921
@<TRIPOS>BOND
     1      1      2 1 
     2      2      3 1 
     3      2      4 1 
     4      4      5 1 
     5      5      6 1 
     6      6      7 1 
     7      7      8 1 
     8      8      9 ar
     9      9     10 ar
    10     10     11 ar
    11     11     12 1 
    12     11     28 ar
    13     12     13 am
    14     13     14 2 
    15     13     15 1 
    16     15     16 ar
    17     16     17 ar
    18     17     18 ar
    19     18     19 ar
    20     19     20 ar
    21     20     21 ar
    22     20     25 1 
    23     21     22 ar
    24     22     23 ar
    25     23     18 ar
    26     23     24 ar
    27     24     15 ar
    28     25     26 2 
    29     25     27 am
    30     28     29 ar
    31     29      4 1 
    32     29      8 ar
    33      1     30 1 
    34      1     31 1 
    35      1     32 1 
    36      2     33 1 
    37      3     34 1 
    38      3     35 1 
    39      3     36 1 
    40      4     37 1 
    41      5     38 1 
    42      6     39 1 
    43      6     40 1 
    44      7     41 1 
    45      7     42 1 
    46      9     43 1 
    47     10     44 1 
    48     12     45 1 
    49     16     46 1 
    50     17     47 1 
    51     19     48 1 
    52     21     49 1 
    53     22     50 1 
    54     24     51 1 
    55     26     52 1 
    56     27     53 1 
    57     27     54 1 
    58     28     55 1 
@<TRIPOS>SUBSTRUCTURE
     1 MOL1         1 MOLECULE          1 A
