# Molecule written by the XED library from Cresset
@<TRIPOS>MOLECULE
CHEMBL3975284
    53     54      1
SMALL
USER_CHARGES
@<TRIPOS>ATOM
      1 C           -3.8879    3.8051   -0.5019 C.3       1 MOL1       -0.1122
      2 C           -2.7349    2.7867   -0.4272 C.3       1 MOL1       -0.0203
      3 C           -1.9499    2.9096   -1.7439 C.3       1 MOL1       -0.1122
      4 C           -1.8409    3.1862    0.7587 C.3       1 MOL1       -0.1122
      5 C           -3.2876    1.3467   -0.2556 C.3       1 MOL1        0.0740
      6 O           -4.0118    1.2297    0.9790 O.3       1 MOL1       -0.4291
      7 C           -2.2443    0.2356   -0.2955 C.2       1 MOL1        0.2999
      8 O           -1.0567    0.4580   -0.1224 O.2       1 MOL1       -0.4159
      9 N           -2.7382   -0.9988   -0.5333 N.am      1 MOL1       -0.3906
     10 C           -4.1811   -1.3001   -0.6294 C.3       1 MOL1        0.0725
     11 C           -4.2183   -2.8149   -0.8602 C.3       1 MOL1       -0.0686
     12 C           -2.8495   -3.2929   -0.3773 C.3       1 MOL1       -0.0574
     13 C           -1.8542   -2.1710   -0.7391 C.3       1 MOL1        0.1589
     14 C           -0.5198   -2.2627   -0.0010 C.2       1 MOL1        0.2581
     15 N            0.3772   -1.3328   -0.0050 N.2       1 MOL1       -0.4054
     16 C            1.6514   -1.5087    0.7443 C.3       1 MOL1        0.0067
     17 C            2.8755   -0.6869    0.3360 C.ar      1 MOL1       -0.0364
     18 C            4.0850   -1.3491    0.2733 C.ar      1 MOL1       -0.0578
     19 C            5.2472   -0.6808   -0.0436 C.ar      1 MOL1        0.0436
     20 Cl           6.7640   -1.5316   -0.1027 Cl        1 MOL1       -0.1082
     21 C            5.2098    0.6675   -0.3104 C.ar      1 MOL1       -0.0636
     22 C            4.0115    1.3371   -0.2545 C.ar      1 MOL1       -0.0766
     23 C            2.8501    0.6707    0.0717 C.ar      1 MOL1       -0.0432
     24 C            1.5583    1.4625    0.1333 C.3       1 MOL1        0.0098
     25 O            1.7361    2.8788    0.3114 O.3       1 MOL1       -0.4442
     26 O           -0.3107   -3.4452    0.6413 O.3       1 MOL1       -0.3363
     27 H           -4.0487    1.2132   -1.1705 H         1 MOL1        0.0726
     28 H           -1.6286   -2.2413   -1.9166 H         1 MOL1        0.0671
     29  H          -4.6352    3.5299   -1.4005 H         1 MOL1        0.0438
     30  H          -4.4876    3.8375    0.5367 H         1 MOL1        0.0438
     31  H          -3.4352    4.8989   -0.7028 H         1 MOL1        0.0438
     32  H          -1.4701    4.0073   -1.8235 H         1 MOL1        0.0438
     33  H          -1.0739    2.0933   -1.7960 H         1 MOL1        0.0438
     34  H          -2.7006    2.7432   -2.6656 H         1 MOL1        0.0438
     35  H          -0.8703    2.4866    0.8115 H         1 MOL1        0.0438
     36  H          -2.4687    3.0732    1.7753 H         1 MOL1        0.0438
     37  H          -1.4906    4.3278    0.6360 H         1 MOL1        0.0438
     38  H          -4.8088    1.8420    0.9994 H         1 MOL1        0.3291
     39  H          -4.7311   -0.7661   -1.5511 H         1 MOL1        0.0593
     40  H          -4.7223   -1.0239    0.4048 H         1 MOL1        0.0593
     41  H          -4.3276   -3.0562   -2.0313 H         1 MOL1        0.0474
     42  H          -5.1040   -3.3374   -0.2417 H         1 MOL1        0.0474
     43  H          -2.5700   -4.3373   -0.9001 H         1 MOL1        0.0479
     44  H          -2.9094   -3.4083    0.8162 H         1 MOL1        0.0479
     45  H           1.4257   -1.2668    1.8975 H         1 MOL1        0.0620
     46  H           1.9269   -2.6749    0.6717 H         1 MOL1        0.0620
     47  H           4.1218   -2.3292    0.4686 H         1 MOL1        0.0941
     48  H           6.0501    1.1584   -0.5406 H         1 MOL1        0.0939
     49  H           3.9817    2.3180   -0.4466 H         1 MOL1        0.0908
     50  H           0.9739    1.2770   -0.8968 H         1 MOL1        0.0667
     51  H           0.9174    1.0412    1.0557 H         1 MOL1        0.0667
     52  H           2.2652    3.2810   -0.4441 H         1 MOL1        0.3291
     53  H          -1.0406   -4.1106    0.4655 H         1 MOL1        0.3296
@<TRIPOS>BOND
     1      1      2 1 
     2      2      3 1 
     3      2      4 1 
     4      2      5 1 
     5      5      6 1 
     6      5      7 1 
     7      7      8 2 
     8      7      9 am
     9      9     10 1 
    10     10     11 1 
    11     11     12 1 
    12     12     13 1 
    13     13      9 1 
    14     13     14 1 
    15     14     15 2 
    16     14     26 1 
    17     15     16 1 
    18     16     17 1 
    19     17     18 ar
    20     18     19 ar
    21     19     20 1 
    22     19     21 ar
    23     21     22 ar
    24     22     23 ar
    25     23     17 ar
    26     23     24 1 
    27     24     25 1 
    28      1     29 1 
    29      1     30 1 
    30      1     31 1 
    31      3     32 1 
    32      3     33 1 
    33      3     34 1 
    34      4     35 1 
    35      4     36 1 
    36      4     37 1 
    37      5     27 1 
    38      6     38 1 
    39     10     39 1 
    40     10     40 1 
    41     11     41 1 
    42     11     42 1 
    43     12     43 1 
    44     12     44 1 
    45     13     28 1 
    46     16     45 1 
    47     16     46 1 
    48     18     47 1 
    49     21     48 1 
    50     22     49 1 
    51     24     50 1 
    52     24     51 1 
    53     25     52 1 
    54     26     53 1 
@<TRIPOS>SUBSTRUCTURE
     1 MOL1         1 MOLECULE          1 A
