# Molecule written by the XED library from Cresset
@<TRIPOS>MOLECULE
CHEMBL420689
    57     60      1
SMALL
USER_CHARGES
@<TRIPOS>ATOM
      1 N           -9.3134    0.3915   -0.0876 N.3       1 MOL1       -0.6103
      2 C           -7.9714    0.0327   -0.5550 C.3       1 MOL1       -0.0431
      3 C           -6.9734    1.1252   -0.1202 C.3       1 MOL1       -0.0736
      4 C           -5.5405    0.7454   -0.5447 C.3       1 MOL1       -0.0829
      5 C           -5.1432   -0.6124    0.0722 C.3       1 MOL1       -0.0452
      6 C           -3.7056   -0.9836   -0.3411 C.3       1 MOL1        0.0743
      7 N           -2.7137   -0.1486    0.3504 N.am      1 MOL1       -0.3857
      8 C           -1.4368   -0.1276   -0.0676 C.2       1 MOL1        0.3238
      9 O           -0.9956   -0.7496   -1.0237 O.2       1 MOL1       -0.4176
     10 C           -0.5729    0.7528    0.8104 C.3       1 MOL1        0.1604
     11 C           -0.7843    2.2403    0.4945 C.3       1 MOL1       -0.0562
     12 C            0.4427    2.9150    1.1117 C.3       1 MOL1       -0.0686
     13 C            1.5923    1.9291    0.8508 C.3       1 MOL1        0.0725
     14 N            0.8909    0.6420    0.6664 N.am      1 MOL1       -0.3901
     15 C            1.4941   -0.5392    0.4050 C.2       1 MOL1        0.3058
     16 O            0.8942   -1.5574    0.0872 O.2       1 MOL1       -0.4159
     17 C            3.0031   -0.5433    0.5893 C.3       1 MOL1        0.0980
     18 C            3.5693   -1.9784    0.5787 C.3       1 MOL1        0.0168
     19 O            5.0023   -1.9508    0.7666 O.3       1 MOL1       -0.1907
     20 C            5.6966   -0.9539    0.1896 C.ar      1 MOL1        0.0645
     21 C            7.0745   -1.0046    0.1945 C.ar      1 MOL1       -0.0813
     22 C            7.8123    0.0079   -0.3777 C.ar      1 MOL1       -0.1035
     23 C            7.1765    1.0777   -0.9620 C.ar      1 MOL1       -0.1035
     24 C            5.8004    1.1397   -0.9753 C.ar      1 MOL1       -0.0813
     25 C            5.0529    0.1356   -0.3982 C.ar      1 MOL1        0.0653
     26 O            3.7131    0.2204   -0.4094 O.3       1 MOL1       -0.1791
     27 C           -6.1292   -1.7025   -0.3939 C.3       1 MOL1       -0.0829
     28 C           -7.5630   -1.3312    0.0389 C.3       1 MOL1       -0.0736
     29 H           -0.8359    0.5598    1.9657 H         1 MOL1        0.0678
     30  H         -10.0302   -0.2719   -0.4050 H         1 MOL1        0.2740
     31  H          -9.3485    0.5473    0.9271 H         1 MOL1        0.2740
     32  H          -7.9761   -0.0424   -1.7522 H         1 MOL1        0.0589
     33  H          -7.0127    1.2395    1.0736 H         1 MOL1        0.0474
     34  H          -7.2743    2.1704   -0.6277 H         1 MOL1        0.0474
     35  H          -5.4912    0.6622   -1.7405 H         1 MOL1        0.0463
     36  H          -4.7757    1.5913   -0.1709 H         1 MOL1        0.0463
     37  H          -5.2092   -0.5374    1.2683 H         1 MOL1        0.0501
     38  H          -3.5868   -0.8528   -1.5277 H         1 MOL1        0.0593
     39  H          -3.4977   -2.1294   -0.0515 H         1 MOL1        0.0593
     40  H          -2.9604    0.3311    1.0463 H         1 MOL1        0.2039
     41  H          -1.8041    2.6510    0.9754 H         1 MOL1        0.0479
     42  H          -0.7815    2.4018   -0.6951 H         1 MOL1        0.0479
     43  H           0.2595    3.0232    2.2929 H         1 MOL1        0.0474
     44  H           0.6564    3.9885    0.6205 H         1 MOL1        0.0474
     45  H           2.1437    2.2468   -0.1659 H         1 MOL1        0.0593
     46  H           2.3599    1.9414    1.7728 H         1 MOL1        0.0593
     47  H           3.2571   -0.0929    1.6716 H         1 MOL1        0.0742
     48  H           3.3213   -2.4847   -0.4819 H         1 MOL1        0.0664
     49  H           3.0590   -2.6281    1.4495 H         1 MOL1        0.0664
     50  H           7.5438   -1.7801    0.6176 H         1 MOL1        0.0924
     51  H           8.8118   -0.0349   -0.3684 H         1 MOL1        0.0906
     52  H           7.7139    1.8123   -1.3776 H         1 MOL1        0.0906
     53  H           5.3438    1.9206   -1.4025 H         1 MOL1        0.0924
     54  H          -6.0785   -1.7965   -1.5892 H         1 MOL1        0.0463
     55  H          -5.8313   -2.7534    0.1035 H         1 MOL1        0.0463
     56  H          -7.6043   -1.2597    1.2359 H         1 MOL1        0.0474
     57  H          -8.3268   -2.1773   -0.3357 H         1 MOL1        0.0474
@<TRIPOS>BOND
     1      1      2 1 
     2      2      3 1 
     3      3      4 1 
     4      4      5 1 
     5      5      6 1 
     6      5     27 1 
     7      6      7 1 
     8      7      8 am
     9      8      9 2 
    10      8     10 1 
    11     10     11 1 
    12     11     12 1 
    13     12     13 1 
    14     13     14 1 
    15     14     10 1 
    16     14     15 am
    17     15     16 2 
    18     15     17 1 
    19     17     18 1 
    20     18     19 1 
    21     19     20 1 
    22     20     21 ar
    23     21     22 ar
    24     22     23 ar
    25     23     24 ar
    26     24     25 ar
    27     25     20 ar
    28     25     26 1 
    29     26     17 1 
    30     27     28 1 
    31     28      2 1 
    32      1     30 1 
    33      1     31 1 
    34      2     32 1 
    35      3     33 1 
    36      3     34 1 
    37      4     35 1 
    38      4     36 1 
    39      5     37 1 
    40      6     38 1 
    41      6     39 1 
    42      7     40 1 
    43     10     29 1 
    44     11     41 1 
    45     11     42 1 
    46     12     43 1 
    47     12     44 1 
    48     13     45 1 
    49     13     46 1 
    50     17     47 1 
    51     18     48 1 
    52     18     49 1 
    53     21     50 1 
    54     22     51 1 
    55     23     52 1 
    56     24     53 1 
    57     27     54 1 
    58     27     55 1 
    59     28     56 1 
    60     28     57 1 
@<TRIPOS>SUBSTRUCTURE
     1 MOL1         1 MOLECULE          1 A
