# Molecule written by the XED library from Cresset
@<TRIPOS>MOLECULE
CHEMBL95097
    34     36      1
SMALL
USER_CHARGES
@<TRIPOS>ATOM
      1 C           -4.4030   -3.0332    0.0000 C.3       1 MOL1       -0.0802
      2 C           -3.8801   -1.6116    0.0000 C.ar      1 MOL1       -0.0764
      3 C           -4.7526   -0.5434    0.0000 C.ar      1 MOL1       -0.0491
      4 C           -4.2690    0.7427    0.0000 C.ar      1 MOL1        0.0481
      5 Br          -5.4822    2.1826    0.0002 Br        1 MOL1       -0.0843
      6 C           -2.9045    0.9733    0.0000 C.ar      1 MOL1        0.0989
      7 O           -2.4396    2.2520   -0.0001 O.3       1 MOL1       -0.3724
      8 C           -2.0143   -0.1002    0.0000 C.ar      1 MOL1        0.0078
      9 C           -2.5261   -1.3894    0.0000 C.ar      1 MOL1       -0.0621
     10 C           -0.5750    0.0429    0.0000 C.ar      1 MOL1        0.2200
     11 N            0.3064   -0.9610    0.0000 N.ar      1 MOL1       -0.4001
     12 C            1.5753   -0.4306    0.0000 C.ar      1 MOL1        0.0255
     13 C            2.8533   -0.9849    0.0000 C.ar      1 MOL1       -0.0500
     14 C            3.9477   -0.1373    0.0000 C.ar      1 MOL1       -0.0232
     15 C            3.7101    1.2602    0.0000 C.ar      1 MOL1       -0.0740
     16 C            2.4593    1.8091    0.0000 C.ar      1 MOL1       -0.0908
     17 C            1.3987    0.9203    0.0000 C.ar      1 MOL1        0.0822
     18 N            0.0560    1.2339    0.0000 N.pl3     1 MOL1       -0.1582
     19 C            5.3613   -0.6516    0.0000 C.2       1 MOL1        0.1479
     20 N            5.6388   -1.9295    0.0000 N.2       1 MOL1       -0.5921
     21 N            6.3939    0.2240   -0.0001 N.am      1 MOL1       -0.4220
     22 H           -0.3005    2.0369    0.0000 H         1 MOL1        0.2049
     23  H          -5.6036   -3.0440    0.0001 H         1 MOL1        0.0465
     24  H          -4.0028   -3.6011    0.9784 H         1 MOL1        0.0465
     25  H          -4.0028   -3.6011   -0.9784 H         1 MOL1        0.0465
     26  H          -5.7394   -0.7051    0.0001 H         1 MOL1        0.0936
     27  H          -3.1925    2.9197   -0.0002 H         1 MOL1        0.3295
     28  H          -1.8992   -2.1686   -0.0001 H         1 MOL1        0.0912
     29  H           2.9528   -1.9760    0.0000 H         1 MOL1        0.0923
     30  H           4.4860    1.8862    0.0001 H         1 MOL1        0.0910
     31  H           2.3177    2.7991    0.0001 H         1 MOL1        0.0919
     32  H           4.8402   -2.5210    0.0000 H         1 MOL1        0.2200
     33  H           6.2637    1.0909   -0.0001 H         1 MOL1        0.2753
     34  H           7.2181   -0.0848   -0.0002 H         1 MOL1        0.2753
@<TRIPOS>BOND
     1      1      2 1 
     2      2      3 ar
     3      3      4 ar
     4      4      5 1 
     5      4      6 ar
     6      6      7 1 
     7      6      8 ar
     8      8      9 ar
     9      8     10 1 
    10      9      2 ar
    11     10     11 ar
    12     11     12 ar
    13     12     13 ar
    14     13     14 ar
    15     14     15 ar
    16     14     19 1 
    17     15     16 ar
    18     16     17 ar
    19     17     12 ar
    20     17     18 ar
    21     18     10 ar
    22     19     20 2 
    23     19     21 am
    24      1     23 1 
    25      1     24 1 
    26      1     25 1 
    27      3     26 1 
    28      7     27 1 
    29      9     28 1 
    30     13     29 1 
    31     15     30 1 
    32     16     31 1 
    33     18     22 1 
    34     20     32 1 
    35     21     33 1 
    36     21     34 1 
@<TRIPOS>SUBSTRUCTURE
     1 MOL1         1 MOLECULE          1 A
