# Molecule written by the XED library from Cresset
@<TRIPOS>MOLECULE
CHEMBL96428
    44     47      1
SMALL
USER_CHARGES
@<TRIPOS>ATOM
      1 C            1.9859    2.7472   -0.0535 C.3       1 MOL1        0.0495
      2 N            1.7716    1.2884   -0.0181 N.pl3     1 MOL1       -0.1785
      3 C            0.5898    0.5738   -0.0081 C.ar      1 MOL1        0.2279
      4 N            0.8323   -0.7380   -0.0479 N.ar      1 MOL1       -0.3984
      5 C            2.1864   -0.9282   -0.0577 C.ar      1 MOL1        0.0332
      6 C            2.9871   -2.0692   -0.0770 C.ar      1 MOL1       -0.0822
      7 C            4.3371   -1.8884   -0.0625 C.ar      1 MOL1       -0.0804
      8 C            4.9442   -0.6081   -0.0273 C.ar      1 MOL1       -0.0212
      9 C            4.1151    0.5027   -0.0126 C.ar      1 MOL1       -0.0616
     10 C            2.7413    0.3191   -0.0308 C.ar      1 MOL1        0.0720
     11 C            6.4350   -0.4275   -0.0056 C.2       1 MOL1        0.1466
     12 N            7.2614   -1.4410    0.0330 N.2       1 MOL1       -0.5912
     13 N            6.9599    0.8203   -0.0247 N.am      1 MOL1       -0.4227
     14 C           -0.7545    1.1210    0.0570 C.ar      1 MOL1        0.0057
     15 C           -1.0524    2.4663    0.2212 C.ar      1 MOL1       -0.0583
     16 C           -2.3515    2.8991    0.2850 C.ar      1 MOL1       -0.1033
     17 C           -3.3847    1.9975    0.2003 C.ar      1 MOL1       -0.0636
     18 C           -3.1464    0.6418    0.0462 C.ar      1 MOL1       -0.0134
     19 C           -1.8164    0.2206   -0.0389 C.ar      1 MOL1        0.1031
     20 O           -1.5306   -1.0952   -0.2328 O.3       1 MOL1       -0.3748
     21 C           -4.2962   -0.2614    0.0074 C.ar      1 MOL1       -0.0178
     22 C           -5.5341    0.1633   -0.4572 C.ar      1 MOL1       -0.0850
     23 C           -6.6185   -0.6808   -0.4709 C.ar      1 MOL1       -0.0897
     24 C           -6.4922   -1.9748   -0.0215 C.ar      1 MOL1       -0.0938
     25 C           -5.2758   -2.4188    0.4419 C.ar      1 MOL1       -0.0897
     26 C           -4.1956   -1.5702    0.4570 C.ar      1 MOL1       -0.0850
     27  H           3.1340    3.0268   -0.2566 H         1 MOL1        0.0570
     28  H           1.3460    3.2219   -0.9512 H         1 MOL1        0.0570
     29  H           1.6700    3.2302    0.9989 H         1 MOL1        0.0570
     30  H           2.5859   -2.9849   -0.0986 H         1 MOL1        0.0919
     31  H           4.9037   -2.7071   -0.0772 H         1 MOL1        0.0910
     32  H           4.4933    1.4239    0.0135 H         1 MOL1        0.0923
     33  H           6.8178   -2.3297    0.0523 H         1 MOL1        0.2200
     34  H           6.4513    1.5337   -0.0579 H         1 MOL1        0.2753
     35  H           7.8343    0.9178   -0.0041 H         1 MOL1        0.2753
     36  H          -0.3209    3.1359    0.2996 H         1 MOL1        0.0910
     37  H          -2.5475    3.8728    0.4010 H         1 MOL1        0.0906
     38  H          -4.3240    2.3312    0.2641 H         1 MOL1        0.0910
     39  H          -2.2466   -1.5537   -0.7693 H         1 MOL1        0.3295
     40  H          -5.6439    1.0983   -0.7915 H         1 MOL1        0.0910
     41  H          -7.5011   -0.3538   -0.8085 H         1 MOL1        0.0906
     42  H          -7.2808   -2.5896   -0.0314 H         1 MOL1        0.0906
     43  H          -5.1780   -3.3583    0.7700 H         1 MOL1        0.0906
     44  H          -3.3193   -1.9035    0.8042 H         1 MOL1        0.0910
@<TRIPOS>BOND
     1      1      2 1 
     2      2      3 ar
     3      3      4 ar
     4      3     14 1 
     5      4      5 ar
     6      5      6 ar
     7      6      7 ar
     8      7      8 ar
     9      8      9 ar
    10      8     11 1 
    11      9     10 ar
    12     10      2 ar
    13     10      5 ar
    14     11     12 2 
    15     11     13 am
    16     14     15 ar
    17     15     16 ar
    18     16     17 ar
    19     17     18 ar
    20     18     19 ar
    21     18     21 1 
    22     19     14 ar
    23     19     20 1 
    24     21     22 ar
    25     22     23 ar
    26     23     24 ar
    27     24     25 ar
    28     25     26 ar
    29     26     21 ar
    30      1     27 1 
    31      1     28 1 
    32      1     29 1 
    33      6     30 1 
    34      7     31 1 
    35      9     32 1 
    36     12     33 1 
    37     13     34 1 
    38     13     35 1 
    39     15     36 1 
    40     16     37 1 
    41     17     38 1 
    42     20     39 1 
    43     22     40 1 
    44     23     41 1 
    45     24     42 1 
    46     25     43 1 
    47     26     44 1 
@<TRIPOS>SUBSTRUCTURE
     1 MOL1         1 MOLECULE          1 A
