# Molecule written by the XED library from Cresset
@<TRIPOS>MOLECULE
CHEMBL3985609
    49     51      1
SMALL
USER_CHARGES
@<TRIPOS>ATOM
      1 N           -5.5258   -3.5712   -0.2179 N.3       1 MOL1       -0.6086
      2 C           -4.3175   -2.7591   -0.0270 C.3       1 MOL1       -0.0191
      3 C           -4.5552   -1.2525   -0.0179 C.ar      1 MOL1       -0.0515
      4 C           -5.8348   -0.7652    0.1532 C.ar      1 MOL1       -0.0779
      5 C           -6.0816    0.5871    0.1588 C.ar      1 MOL1       -0.0637
      6 C           -5.0418    1.4712   -0.0062 C.ar      1 MOL1        0.0436
      7 Cl          -5.3452    3.1840   -0.0079 Cl        1 MOL1       -0.1082
      8 C           -3.7617    0.9936   -0.1700 C.ar      1 MOL1       -0.0578
      9 C           -3.5089   -0.3610   -0.1735 C.ar      1 MOL1       -0.0376
     10 C           -2.0680   -0.8159   -0.3601 C.3       1 MOL1        0.0066
     11 N           -1.0932    0.1817    0.1414 N.2       1 MOL1       -0.4054
     12 C            0.1753   -0.0354    0.0873 C.2       1 MOL1        0.2581
     13 O            0.7445   -1.1529   -0.4249 O.3       1 MOL1       -0.3363
     14 C            1.1725    0.9588    0.6354 C.3       1 MOL1        0.1589
     15 C            0.8552    2.3697    0.1205 C.3       1 MOL1       -0.0574
     16 C            2.1390    3.1501    0.4079 C.3       1 MOL1       -0.0686
     17 C            3.2605    2.1497    0.0938 C.3       1 MOL1        0.0725
     18 N            2.6077    0.8436    0.3073 N.am      1 MOL1       -0.3906
     19 C            3.2433   -0.3479    0.2514 C.2       1 MOL1        0.3008
     20 O            2.6796   -1.4313    0.1934 O.2       1 MOL1       -0.4159
     21 C            4.7572   -0.2920    0.3461 C.3       1 MOL1        0.0774
     22 C            5.5129    0.2085   -0.8971 C.3       1 MOL1       -0.0509
     23 C            6.8669   -0.4964   -0.7639 C.3       1 MOL1       -0.0630
     24 C            6.5057   -1.8233   -0.0792 C.3       1 MOL1       -0.0300
     25 O            5.2327   -1.6326    0.5647 O.3       1 MOL1       -0.2437
     26 H            1.0718    0.9703    1.8307 H         1 MOL1        0.0671
     27 H            5.0972    0.3448    1.3033 H         1 MOL1        0.0724
     28  H          -6.0266   -3.3259   -1.0800 H         1 MOL1        0.2740
     29  H          -5.3359   -4.5786   -0.1528 H         1 MOL1        0.2740
     30  H          -3.5639   -3.0214   -0.9239 H         1 MOL1        0.0594
     31  H          -3.8067   -3.0724    1.0127 H         1 MOL1        0.0594
     32  H          -6.5943   -1.4049    0.2716 H         1 MOL1        0.0908
     33  H          -7.0143    0.9268    0.2807 H         1 MOL1        0.0939
     34  H          -3.0060    1.6379   -0.2867 H         1 MOL1        0.0941
     35  H          -1.8609   -1.0161   -1.5250 H         1 MOL1        0.0620
     36  H          -1.8755   -1.8273    0.2545 H         1 MOL1        0.0620
     37  H           0.0482   -1.8061   -0.7376 H         1 MOL1        0.3296
     38  H           0.6698    2.3297   -1.0646 H         1 MOL1        0.0479
     39  H          -0.0922    2.8489    0.6807 H         1 MOL1        0.0479
     40  H           2.2238    4.1422   -0.2620 H         1 MOL1        0.0474
     41  H           2.1692    3.4293    1.5741 H         1 MOL1        0.0474
     42  H           4.2022    2.3478    0.8095 H         1 MOL1        0.0593
     43  H           3.5577    2.2676   -1.0632 H         1 MOL1        0.0593
     44  H           4.9494   -0.1603   -1.8902 H         1 MOL1        0.0484
     45  H           5.6647    1.3987   -0.8953 H         1 MOL1        0.0484
     46  H           7.5699    0.1467   -0.0337 H         1 MOL1        0.0479
     47  H           7.4006   -0.6653   -1.8256 H         1 MOL1        0.0479
     48  H           6.3946   -2.6750   -0.9171 H         1 MOL1        0.0640
     49  H           7.3465   -2.1413    0.7158 H         1 MOL1        0.0640
@<TRIPOS>BOND
     1      1      2 1 
     2      2      3 1 
     3      3      4 ar
     4      4      5 ar
     5      5      6 ar
     6      6      7 1 
     7      6      8 ar
     8      8      9 ar
     9      9      3 ar
    10      9     10 1 
    11     10     11 1 
    12     11     12 2 
    13     12     13 1 
    14     12     14 1 
    15     14     15 1 
    16     15     16 1 
    17     16     17 1 
    18     17     18 1 
    19     18     14 1 
    20     18     19 am
    21     19     20 2 
    22     19     21 1 
    23     21     22 1 
    24     22     23 1 
    25     23     24 1 
    26     24     25 1 
    27     25     21 1 
    28      1     28 1 
    29      1     29 1 
    30      2     30 1 
    31      2     31 1 
    32      4     32 1 
    33      5     33 1 
    34      8     34 1 
    35     10     35 1 
    36     10     36 1 
    37     13     37 1 
    38     14     26 1 
    39     15     38 1 
    40     15     39 1 
    41     16     40 1 
    42     16     41 1 
    43     17     42 1 
    44     17     43 1 
    45     21     27 1 
    46     22     44 1 
    47     22     45 1 
    48     23     46 1 
    49     23     47 1 
    50     24     48 1 
    51     24     49 1 
@<TRIPOS>SUBSTRUCTURE
     1 MOL1         1 MOLECULE          1 A
