# Molecule written by the XED library from Cresset
@<TRIPOS>MOLECULE
CHEMBL105395
    48     51      1
SMALL
USER_CHARGES
@<TRIPOS>ATOM
      1 N           -6.4849    2.2849   -0.0471 N.am      1 MOL1       -0.4212
      2 C           -5.6453    1.2210   -0.0563 C.2       1 MOL1        0.1553
      3 N           -6.0820   -0.0069   -0.1160 N.2       1 MOL1       -0.5812
      4 C           -4.1706    1.4167   -0.0011 C.ar      1 MOL1       -0.0044
      5 C           -3.5701    2.6763    0.2049 C.ar      1 MOL1       -0.0652
      6 C           -2.2264    2.7975    0.2445 C.ar      1 MOL1       -0.0773
      7 C           -1.4091    1.6639    0.0841 C.ar      1 MOL1       -0.0107
      8 C           -0.0224    1.8338    0.1190 C.ar      1 MOL1       -0.0453
      9 C            0.8170    0.7699   -0.0374 C.ar      1 MOL1        0.0091
     10 C            0.2374   -0.5053   -0.2304 C.ar      1 MOL1       -0.0609
     11 C           -1.1019   -0.7280   -0.2638 C.ar      1 MOL1       -0.0416
     12 C           -1.5223   -2.1937   -0.5036 C.3       1 MOL1       -0.0014
     13 C           -0.5702   -3.2737    0.0478 C.3       1 MOL1       -0.0557
     14 C           -1.4192   -4.5490    0.0748 C.3       1 MOL1       -0.0294
     15 O           -2.7723   -4.1199    0.2741 O.3       1 MOL1       -0.2570
     16 C           -2.8798   -2.7080    0.0271 C.3       1 MOL1       -0.0175
     17 C           -1.9675    0.3907   -0.1131 C.ar      1 MOL1       -0.0082
     18 C           -3.3719    0.3205   -0.1557 C.ar      1 MOL1       -0.0407
     19 C            2.2887    1.0000   -0.0049 C.2       1 MOL1        0.3241
     20 O            2.6500    2.1737    0.0257 O.2       1 MOL1       -0.4094
     21 N            3.1486   -0.0485   -0.0067 N.am      1 MOL1       -0.2240
     22 C            4.5551   -0.0350   -0.0093 C.ar      1 MOL1        0.0696
     23 C            5.2468   -1.2347   -0.0129 C.ar      1 MOL1       -0.1034
     24 C            6.6207   -1.2541   -0.0133 C.ar      1 MOL1       -0.0879
     25 C            7.3259   -0.0722   -0.0105 C.ar      1 MOL1       -0.1196
     26 C            6.6521    1.1279   -0.0078 C.ar      1 MOL1       -0.0879
     27 C            5.2778    1.1480   -0.0073 C.ar      1 MOL1       -0.1034
     28  H          -7.3563    2.1648   -0.0726 H         1 MOL1        0.2753
     29  H          -6.1684    3.1040   -0.0188 H         1 MOL1        0.2753
     30  H          -7.0804   -0.0540   -0.1501 H         1 MOL1        0.2200
     31  H          -4.1378    3.4897    0.3224 H         1 MOL1        0.0910
     32  H          -1.8107    3.6956    0.3879 H         1 MOL1        0.0910
     33  H           0.3594    2.7478    0.2568 H         1 MOL1        0.0914
     34  H           0.8426   -1.2879   -0.3524 H         1 MOL1        0.0912
     35  H          -1.5335   -2.3526   -1.6934 H         1 MOL1        0.0537
     36  H           0.3986   -3.4272   -0.6435 H         1 MOL1        0.0484
     37  H          -0.2522   -2.9857    1.1686 H         1 MOL1        0.0484
     38  H          -1.0644   -5.2925    0.9474 H         1 MOL1        0.0640
     39  H          -1.3379   -5.0939   -0.9912 H         1 MOL1        0.0640
     40  H          -3.1342   -2.1676    1.0683 H         1 MOL1        0.0645
     41  H          -3.7619   -2.5415   -0.7703 H         1 MOL1        0.0645
     42  H          -3.8107   -0.5592   -0.3055 H         1 MOL1        0.0914
     43  H           2.7859   -0.8483   -0.0017 H         1 MOL1        0.2056
     44  H           4.7407   -2.0970   -0.0148 H         1 MOL1        0.0919
     45  H           7.1083   -2.1271   -0.0155 H         1 MOL1        0.0906
     46  H           8.3257   -0.0853   -0.0106 H         1 MOL1        0.0906
     47  H           7.1634    1.9872   -0.0061 H         1 MOL1        0.0906
     48  H           4.8017    2.0256   -0.0053 H         1 MOL1        0.0919
@<TRIPOS>BOND
     1      1      2 am
     2      2      3 2 
     3      2      4 1 
     4      4      5 ar
     5      5      6 ar
     6      6      7 ar
     7      7      8 ar
     8      8      9 ar
     9      9     10 ar
    10      9     19 1 
    11     10     11 ar
    12     11     12 1 
    13     11     17 ar
    14     12     13 1 
    15     13     14 1 
    16     14     15 1 
    17     15     16 1 
    18     16     12 1 
    19     17      7 ar
    20     17     18 ar
    21     18      4 ar
    22     19     20 2 
    23     19     21 am
    24     21     22 1 
    25     22     23 ar
    26     23     24 ar
    27     24     25 ar
    28     25     26 ar
    29     26     27 ar
    30     27     22 ar
    31      1     28 1 
    32      1     29 1 
    33      3     30 1 
    34      5     31 1 
    35      6     32 1 
    36      8     33 1 
    37     10     34 1 
    38     12     35 1 
    39     13     36 1 
    40     13     37 1 
    41     14     38 1 
    42     14     39 1 
    43     16     40 1 
    44     16     41 1 
    45     18     42 1 
    46     21     43 1 
    47     23     44 1 
    48     24     45 1 
    49     25     46 1 
    50     26     47 1 
    51     27     48 1 
@<TRIPOS>SUBSTRUCTURE
     1 MOL1         1 MOLECULE          1 A
