# Molecule written by the XED library from Cresset
@<TRIPOS>MOLECULE
CHEMBL109367
    53     56      1
SMALL
USER_CHARGES
@<TRIPOS>ATOM
      1 C           -5.7169   -3.3600   -1.1512 C.3       1 MOL1       -0.1133
      2 C           -4.6650   -2.4778   -0.4587 C.3       1 MOL1       -0.0183
      3 C           -4.1385   -3.2119    0.7846 C.3       1 MOL1       -0.1133
      4 C           -5.2549   -1.1417   -0.0546 C.2       1 MOL1        0.1351
      5 N           -6.4975   -1.1146    0.2937 N.2       1 MOL1       -0.4035
      6 C           -7.1680    0.1330    0.7426 C.3       1 MOL1       -0.0338
      7 C           -6.6149    1.3487   -0.0194 C.3       1 MOL1       -0.0344
      8 C           -5.0993    1.3247   -0.0496 C.ar      1 MOL1       -0.0466
      9 C           -4.3816    2.4964   -0.0668 C.ar      1 MOL1       -0.0814
     10 C           -3.0073    2.4633   -0.1034 C.ar      1 MOL1       -0.0768
     11 C           -2.3292    1.2552   -0.1227 C.ar      1 MOL1        0.0758
     12 N           -0.9229    1.2512   -0.1566 N.am      1 MOL1       -0.2243
     13 C           -0.0774    0.1999   -0.0189 C.2       1 MOL1        0.3240
     14 O           -0.4551   -0.9601    0.1247 O.2       1 MOL1       -0.4095
     15 C            1.3974    0.4078   -0.0287 C.ar      1 MOL1        0.0086
     16 C            1.9935    1.6921   -0.0435 C.ar      1 MOL1       -0.0652
     17 C            3.3369    1.8487   -0.0451 C.ar      1 MOL1       -0.0757
     18 C            4.1827    0.7243   -0.0307 C.ar      1 MOL1       -0.0126
     19 C            5.5778    0.8594   -0.0272 C.ar      1 MOL1       -0.0411
     20 C            6.4135   -0.2277   -0.0079 C.ar      1 MOL1       -0.0044
     21 C            5.8028   -1.5080    0.0051 C.ar      1 MOL1       -0.0652
     22 C            4.4602   -1.6690    0.0001 C.ar      1 MOL1       -0.0773
     23 C            3.6116   -0.5502   -0.0165 C.ar      1 MOL1       -0.0112
     24 C            2.2179   -0.6875   -0.0158 C.ar      1 MOL1       -0.0453
     25 C            7.9065   -0.0403    0.0006 C.2       1 MOL1        0.1553
     26 N            8.7346   -1.0513   -0.0099 N.2       1 MOL1       -0.5813
     27 N            8.4263    1.2092    0.0207 N.am      1 MOL1       -0.4212
     28 C           -3.0606    0.0811   -0.1105 C.ar      1 MOL1       -0.0679
     29 C           -4.4456    0.1010   -0.0741 C.ar      1 MOL1       -0.0082
     30  H          -6.1396   -2.7935   -2.1209 H         1 MOL1        0.0438
     31  H          -6.6185   -3.5791   -0.3905 H         1 MOL1        0.0438
     32  H          -5.2131   -4.3977   -1.4820 H         1 MOL1        0.0438
     33  H          -3.7665   -2.3152   -1.2366 H         1 MOL1        0.0525
     34  H          -3.7039   -4.2832    0.4634 H         1 MOL1        0.0438
     35  H          -5.0353   -3.3626    1.5675 H         1 MOL1        0.0438
     36  H          -3.2675   -2.5625    1.2945 H         1 MOL1        0.0438
     37  H          -8.3526    0.0462    0.5722 H         1 MOL1        0.0593
     38  H          -6.9465    0.2836    1.9123 H         1 MOL1        0.0593
     39  H          -7.0113    2.3518    0.5078 H         1 MOL1        0.0505
     40  H          -7.0186    1.3144   -1.1490 H         1 MOL1        0.0505
     41  H          -4.8593    3.3748   -0.0533 H         1 MOL1        0.0908
     42  H          -2.4917    3.3201   -0.1148 H         1 MOL1        0.0919
     43  H          -0.5510    2.0380   -0.2755 H         1 MOL1        0.2056
     44  H           1.4167    2.5070   -0.0505 H         1 MOL1        0.0910
     45  H           3.7308    2.7677   -0.0549 H         1 MOL1        0.0910
     46  H           5.9610    1.7799   -0.0379 H         1 MOL1        0.0914
     47  H           6.3639   -2.3309    0.0195 H         1 MOL1        0.0910
     48  H           4.0697   -2.5896    0.0098 H         1 MOL1        0.0910
     49  H           1.8150   -1.6027   -0.0039 H         1 MOL1        0.0914
     50  H           8.2918   -1.9408   -0.0276 H         1 MOL1        0.2200
     51  H           7.9145    1.9209    0.0329 H         1 MOL1        0.2753
     52  H           9.3005    1.3095    0.0223 H         1 MOL1        0.2753
     53  H          -2.5855   -0.7963   -0.1257 H         1 MOL1        0.0923
@<TRIPOS>BOND
     1      1      2 1 
     2      2      3 1 
     3      2      4 1 
     4      4      5 2 
     5      5      6 1 
     6      6      7 1 
     7      7      8 1 
     8      8      9 ar
     9      9     10 ar
    10     10     11 ar
    11     11     12 1 
    12     11     28 ar
    13     12     13 am
    14     13     14 2 
    15     13     15 1 
    16     15     16 ar
    17     16     17 ar
    18     17     18 ar
    19     18     19 ar
    20     19     20 ar
    21     20     21 ar
    22     20     25 1 
    23     21     22 ar
    24     22     23 ar
    25     23     18 ar
    26     23     24 ar
    27     24     15 ar
    28     25     26 2 
    29     25     27 am
    30     28     29 ar
    31     29      4 1 
    32     29      8 ar
    33      1     30 1 
    34      1     31 1 
    35      1     32 1 
    36      2     33 1 
    37      3     34 1 
    38      3     35 1 
    39      3     36 1 
    40      6     37 1 
    41      6     38 1 
    42      7     39 1 
    43      7     40 1 
    44      9     41 1 
    45     10     42 1 
    46     12     43 1 
    47     16     44 1 
    48     17     45 1 
    49     19     46 1 
    50     21     47 1 
    51     22     48 1 
    52     24     49 1 
    53     26     50 1 
    54     27     51 1 
    55     27     52 1 
    56     28     53 1 
@<TRIPOS>SUBSTRUCTURE
     1 MOL1         1 MOLECULE          1 A
