# Molecule written by the XED library from Cresset
@<TRIPOS>MOLECULE
CHEMBL320749
    41     43      1
SMALL
USER_CHARGES
@<TRIPOS>ATOM
      1 N           -8.0838    0.7020   -0.0005 N.am      1 MOL1       -0.4212
      2 C           -7.1264   -0.2575   -0.0008 C.2       1 MOL1        0.1551
      3 N           -7.4206   -1.5282   -0.0009 N.2       1 MOL1       -0.5810
      4 C           -5.6830    0.1094   -0.0008 C.ar      1 MOL1       -0.0044
      5 C           -5.2381    1.4516    0.0000 C.ar      1 MOL1       -0.0653
      6 C           -3.9208    1.7547    0.0001 C.ar      1 MOL1       -0.0773
      7 C           -2.9613    0.7268   -0.0006 C.ar      1 MOL1       -0.0112
      8 C           -1.5924    1.0199   -0.0001 C.ar      1 MOL1       -0.0453
      9 C           -0.6516    0.0262   -0.0005 C.ar      1 MOL1        0.0086
     10 C           -1.0971   -1.3181   -0.0021 C.ar      1 MOL1       -0.0652
     11 C           -2.4141   -1.6275   -0.0025 C.ar      1 MOL1       -0.0757
     12 C           -3.3833   -0.6071   -0.0016 C.ar      1 MOL1       -0.0126
     13 C           -4.7556   -0.8942   -0.0017 C.ar      1 MOL1       -0.0411
     14 C            0.7875    0.4102    0.0006 C.2       1 MOL1        0.3241
     15 O            1.0188    1.6162   -0.0122 O.2       1 MOL1       -0.4083
     16 N            1.7591   -0.5366    0.0160 N.am      1 MOL1       -0.2184
     17 C            3.1507   -0.3560    0.0097 C.ar      1 MOL1        0.0850
     18 C            3.9880   -1.4609    0.0013 C.ar      1 MOL1       -0.1003
     19 C            5.3503   -1.3114   -0.0034 C.ar      1 MOL1       -0.0570
     20 C            5.9335   -0.0480    0.0001 C.ar      1 MOL1       -0.0170
     21 C            5.0873    1.0542    0.0082 C.ar      1 MOL1       -0.0570
     22 C            3.7262    0.9064    0.0131 C.ar      1 MOL1       -0.1003
     23 C            7.4019    0.1640   -0.0039 C.2       1 MOL1        0.3014
     24 O            7.8036    1.3262   -0.0034 O.2       1 MOL1       -0.4240
     25 N            8.2503   -0.8834   -0.0070 N.am      1 MOL1       -0.3856
     26  H          -8.9352    0.4807   -0.0004 H         1 MOL1        0.2753
     27  H          -7.8656    1.5529   -0.0005 H         1 MOL1        0.2753
     28  H          -8.4076   -1.6895   -0.0009 H         1 MOL1        0.2200
     29  H          -5.9037    2.1959    0.0005 H         1 MOL1        0.0910
     30  H          -3.6281    2.7109    0.0007 H         1 MOL1        0.0910
     31  H          -1.2962    1.9749    0.0008 H         1 MOL1        0.0914
     32  H          -0.4307   -2.0617   -0.0030 H         1 MOL1        0.0910
     33  H          -2.7002   -2.5857   -0.0036 H         1 MOL1        0.0910
     34  H          -5.0602   -1.8468   -0.0023 H         1 MOL1        0.0914
     35  H           1.4901   -1.3728    0.0325 H         1 MOL1        0.2056
     36  H           3.5928   -2.3794   -0.0011 H         1 MOL1        0.0919
     37  H           5.9269   -2.1267   -0.0092 H         1 MOL1        0.0910
     38  H           5.4803    1.9738    0.0107 H         1 MOL1        0.0910
     39  H           3.1475    1.7198    0.0195 H         1 MOL1        0.0919
     40  H           7.9510   -1.7093   -0.0149 H         1 MOL1        0.2026
     41  H           9.1190   -0.7400   -0.0011 H         1 MOL1        0.2026
@<TRIPOS>BOND
     1      1      2 am
     2      2      3 2 
     3      2      4 1 
     4      4      5 ar
     5      5      6 ar
     6      6      7 ar
     7      7      8 ar
     8      8      9 ar
     9      9     10 ar
    10      9     14 1 
    11     10     11 ar
    12     11     12 ar
    13     12      7 ar
    14     12     13 ar
    15     13      4 ar
    16     14     15 2 
    17     14     16 am
    18     16     17 1 
    19     17     18 ar
    20     18     19 ar
    21     19     20 ar
    22     20     21 ar
    23     20     23 1 
    24     21     22 ar
    25     22     17 ar
    26     23     24 2 
    27     23     25 am
    28      1     26 1 
    29      1     27 1 
    30      3     28 1 
    31      5     29 1 
    32      6     30 1 
    33      8     31 1 
    34     10     32 1 
    35     11     33 1 
    36     13     34 1 
    37     16     35 1 
    38     18     36 1 
    39     19     37 1 
    40     21     38 1 
    41     22     39 1 
    42     25     40 1 
    43     25     41 1 
@<TRIPOS>SUBSTRUCTURE
     1 MOL1         1 MOLECULE          1 A
