# Molecule written by the XED library from Cresset
@<TRIPOS>MOLECULE
CHEMBL292977
    44     47      1
SMALL
USER_CHARGES
@<TRIPOS>ATOM
      1 N           -8.6057    0.3274    0.0012 N.am      1 MOL1       -0.4228
      2 C           -7.6473   -0.6318    0.0013 C.2       1 MOL1        0.1447
      3 N           -7.9387   -1.9048    0.0008 N.2       1 MOL1       -0.5956
      4 C           -6.2064   -0.2672    0.0011 C.ar      1 MOL1       -0.0292
      5 C           -5.7451    1.0435    0.0029 C.ar      1 MOL1       -0.0553
      6 C           -4.4005    1.3159    0.0012 C.ar      1 MOL1       -0.0996
      7 C           -3.4666    0.2915   -0.0028 C.ar      1 MOL1        0.0896
      8 N           -2.0946    0.5960   -0.0073 N.am      1 MOL1       -0.2167
      9 C           -1.0435   -0.2627   -0.0010 C.2       1 MOL1        0.3247
     10 O           -1.1802   -1.4838    0.0024 O.2       1 MOL1       -0.4128
     11 C            0.3631    0.2287    0.0003 C.ar      1 MOL1        0.0179
     12 C            1.3583   -0.7027    0.0005 C.ar      1 MOL1       -0.0374
     13 C            2.7206   -0.3389    0.0007 C.ar      1 MOL1       -0.0221
     14 C            3.7072   -1.3098    0.0007 C.ar      1 MOL1       -0.0628
     15 C            5.0376   -0.9352    0.0004 C.ar      1 MOL1       -0.0225
     16 C            6.0624   -1.9132    0.0003 C.ar      1 MOL1       -0.0792
     17 C            7.3546   -1.5353   -0.0001 C.ar      1 MOL1       -0.0919
     18 C            7.7079   -0.1659   -0.0002 C.ar      1 MOL1       -0.0876
     19 C            6.7605    0.7915    0.0001 C.ar      1 MOL1       -0.0837
     20 C            5.3894    0.4352    0.0003 C.ar      1 MOL1       -0.0189
     21 C            4.4020    1.4052    0.0006 C.ar      1 MOL1       -0.0833
     22 C            3.0699    1.0308    0.0008 C.ar      1 MOL1       -0.0140
     23 C            2.0341    1.9926    0.0010 C.ar      1 MOL1       -0.0880
     24 C            0.7348    1.6122    0.0008 C.ar      1 MOL1        0.0794
     25 O           -0.2213    2.5772    0.0012 O.3       1 MOL1       -0.3798
     26 C           -3.9261   -1.0171   -0.0039 C.ar      1 MOL1       -0.0996
     27 C           -5.2688   -1.2886   -0.0018 C.ar      1 MOL1       -0.0553
     28  H          -9.4575    0.1060    0.0008 H         1 MOL1        0.2753
     29  H          -8.3873    1.1785    0.0013 H         1 MOL1        0.2753
     30  H          -8.9252   -2.0692    0.0006 H         1 MOL1        0.2200
     31  H          -6.3953    1.8018    0.0053 H         1 MOL1        0.0910
     32  H          -4.0903    2.2666    0.0022 H         1 MOL1        0.0919
     33  H          -1.9031    1.4508   -0.0171 H         1 MOL1        0.2056
     34  H           1.1184   -1.6733    0.0003 H         1 MOL1        0.0914
     35  H           3.4582   -2.2784    0.0007 H         1 MOL1        0.0914
     36  H           5.8256   -2.8847    0.0003 H         1 MOL1        0.0910
     37  H           8.0727   -2.2313   -0.0001 H         1 MOL1        0.0906
     38  H           8.6734    0.0947   -0.0004 H         1 MOL1        0.0906
     39  H           7.0256    1.7557    0.0001 H         1 MOL1        0.0910
     40  H           4.6509    2.3738    0.0007 H         1 MOL1        0.0914
     41  H           2.2642    2.9658    0.0012 H         1 MOL1        0.0928
     42  H           0.1815    3.4994    0.0010 H         1 MOL1        0.3295
     43  H          -3.2767   -1.7749   -0.0066 H         1 MOL1        0.0919
     44  H          -5.5778   -2.2396   -0.0028 H         1 MOL1        0.0910
@<TRIPOS>BOND
     1      1      2 am
     2      2      3 2 
     3      2      4 1 
     4      4      5 ar
     5      5      6 ar
     6      6      7 ar
     7      7      8 1 
     8      7     26 ar
     9      8      9 am
    10      9     10 2 
    11      9     11 1 
    12     11     12 ar
    13     12     13 ar
    14     13     14 ar
    15     14     15 ar
    16     15     16 ar
    17     16     17 ar
    18     17     18 ar
    19     18     19 ar
    20     19     20 ar
    21     20     15 ar
    22     20     21 ar
    23     21     22 ar
    24     22     13 ar
    25     22     23 ar
    26     23     24 ar
    27     24     11 ar
    28     24     25 1 
    29     26     27 ar
    30     27      4 ar
    31      1     28 1 
    32      1     29 1 
    33      3     30 1 
    34      5     31 1 
    35      6     32 1 
    36      8     33 1 
    37     12     34 1 
    38     14     35 1 
    39     16     36 1 
    40     17     37 1 
    41     18     38 1 
    42     19     39 1 
    43     21     40 1 
    44     23     41 1 
    45     25     42 1 
    46     26     43 1 
    47     27     44 1 
@<TRIPOS>SUBSTRUCTURE
     1 MOL1         1 MOLECULE          1 A
