# Molecule written by the XED library from Cresset
@<TRIPOS>MOLECULE
CHEMBL62836
    44     46      1
SMALL
USER_CHARGES
@<TRIPOS>ATOM
      1 C            8.2159    0.6199    0.2978 C.3       1 MOL1       -0.1169
      2 C            6.7822    1.1729    0.3208 C.3       1 MOL1       -0.0499
      3 C            6.6577    2.2237   -0.7953 C.3       1 MOL1       -0.1169
      4 C            5.7842    0.0158    0.1084 C.3       1 MOL1       -0.0227
      5 O            4.4148    0.4521    0.2680 O.3       1 MOL1       -0.1986
      6 C            3.4201   -0.4365    0.0971 C.ar      1 MOL1        0.0696
      7 C            3.6515   -1.7734   -0.1631 C.ar      1 MOL1       -0.0684
      8 C            2.5965   -2.6482   -0.3119 C.ar      1 MOL1       -0.1008
      9 C            1.3069   -2.1945   -0.2180 C.ar      1 MOL1       -0.0765
     10 C            1.0358   -0.8532    0.0211 C.ar      1 MOL1        0.0056
     11 C            2.1107    0.0142    0.1961 C.ar      1 MOL1        0.0890
     12 O            1.8963    1.3262    0.4864 O.3       1 MOL1       -0.3757
     13 C           -0.3579   -0.4661    0.0491 C.ar      1 MOL1        0.2149
     14 N           -1.3854   -1.3066    0.1867 N.ar      1 MOL1       -0.4002
     15 C           -2.5529   -0.5868    0.1100 C.ar      1 MOL1        0.0180
     16 C           -3.8981   -0.9341    0.1694 C.ar      1 MOL1       -0.0467
     17 C           -4.8251    0.0728    0.0153 C.ar      1 MOL1       -0.0007
     18 C           -6.2654   -0.2893    0.0686 C.2       1 MOL1        0.1496
     19 N           -7.1223    0.4544    0.7129 N.2       1 MOL1       -0.5970
     20 N           -6.6685   -1.4189   -0.5519 N.am      1 MOL1       -0.4229
     21 C           -4.4032    1.4053   -0.2045 C.ar      1 MOL1        0.1292
     22 F           -5.3094    2.3732   -0.3959 F         1 MOL1       -0.1424
     23 C           -3.0767    1.7425   -0.2491 C.ar      1 MOL1       -0.0725
     24 C           -2.1677    0.7089   -0.0839 C.ar      1 MOL1        0.0863
     25 N           -0.7908    0.8022   -0.1164 N.pl3     1 MOL1       -0.1593
     26 H           -0.3099    1.5243   -0.2597 H         1 MOL1        0.2049
     27  H           8.9919    1.5268    0.4261 H         1 MOL1        0.0435
     28  H           8.4107    0.0792   -0.7554 H         1 MOL1        0.0435
     29  H           8.3712   -0.1694    1.1881 H         1 MOL1        0.0435
     30  H           6.5811    1.6870    1.3868 H         1 MOL1        0.0501
     31  H           5.5570    2.7021   -0.7889 H         1 MOL1        0.0435
     32  H           6.8574    1.6950   -1.8535 H         1 MOL1        0.0435
     33  H           7.4692    3.0913   -0.6228 H         1 MOL1        0.0435
     34  H           5.9469   -0.4352   -0.9916 H         1 MOL1        0.0645
     35  H           6.0103   -0.8341    0.9239 H         1 MOL1        0.0645
     36  H           4.5877   -2.1153   -0.2400 H         1 MOL1        0.0924
     37  H           2.7729   -3.6160   -0.4931 H         1 MOL1        0.0906
     38  H           0.5514   -2.8392   -0.3349 H         1 MOL1        0.0910
     39  H           1.1087    1.4402    1.1007 H         1 MOL1        0.3295
     40  H          -4.1827   -1.8818    0.3133 H         1 MOL1        0.0923
     41  H          -6.6958    1.2379    1.1635 H         1 MOL1        0.2200
     42  H          -6.0895   -1.9164   -0.9890 H         1 MOL1        0.2753
     43  H          -7.5147   -1.6589   -0.5202 H         1 MOL1        0.2753
     44  H          -2.7792    2.6849   -0.4037 H         1 MOL1        0.0944
@<TRIPOS>BOND
     1      1      2 1 
     2      2      3 1 
     3      2      4 1 
     4      4      5 1 
     5      5      6 1 
     6      6      7 ar
     7      7      8 ar
     8      8      9 ar
     9      9     10 ar
    10     10     11 ar
    11     10     13 1 
    12     11      6 ar
    13     11     12 1 
    14     13     14 ar
    15     14     15 ar
    16     15     16 ar
    17     16     17 ar
    18     17     18 1 
    19     17     21 ar
    20     18     19 2 
    21     18     20 am
    22     21     22 1 
    23     21     23 ar
    24     23     24 ar
    25     24     15 ar
    26     24     25 ar
    27     25     13 ar
    28      1     27 1 
    29      1     28 1 
    30      1     29 1 
    31      2     30 1 
    32      3     31 1 
    33      3     32 1 
    34      3     33 1 
    35      4     34 1 
    36      4     35 1 
    37      7     36 1 
    38      8     37 1 
    39      9     38 1 
    40     12     39 1 
    41     16     40 1 
    42     19     41 1 
    43     20     42 1 
    44     20     43 1 
    45     23     44 1 
    46     25     26 1 
@<TRIPOS>SUBSTRUCTURE
     1 MOL1         1 MOLECULE          1 A
