# Molecule written by the XED library from Cresset
@<TRIPOS>MOLECULE
CHEMBL1201881
    47     50      1
SMALL
USER_CHARGES
@<TRIPOS>ATOM
      1 N           -9.0103    0.8976    0.1057 N.am      1 MOL1       -0.4217
      2 C           -8.0986   -0.1047    0.0721 C.2       1 MOL1        0.1516
      3 N           -8.4499   -1.3612    0.0467 N.2       1 MOL1       -0.5859
      4 C           -6.6415    0.1928    0.0530 C.ar      1 MOL1       -0.0118
      5 C           -6.1194    1.4939    0.2393 C.ar      1 MOL1       -0.0661
      6 C           -4.7876    1.7246    0.2077 C.ar      1 MOL1       -0.0863
      7 C           -3.8928    0.6629   -0.0172 C.ar      1 MOL1       -0.0115
      8 C           -2.5104    0.8839   -0.0796 C.ar      1 MOL1       -0.0809
      9 C           -1.6537   -0.1472   -0.3166 C.ar      1 MOL1        0.0731
     10 O           -0.3179    0.1394   -0.4258 O.3       1 MOL1       -0.1113
     11 C            0.5760   -0.6934    0.1759 C.2       1 MOL1        0.3024
     12 O            0.2693   -1.7371    0.7404 O.2       1 MOL1       -0.3810
     13 C            1.9825   -0.2602    0.1398 C.ar      1 MOL1       -0.0117
     14 C            3.0252   -1.0756    0.5632 C.ar      1 MOL1       -0.0547
     15 C            4.3187   -0.6229    0.5337 C.ar      1 MOL1       -0.0991
     16 C            4.6081    0.6571    0.0796 C.ar      1 MOL1        0.0852
     17 N            5.9152    1.1544    0.0761 N.am      1 MOL1       -0.1988
     18 C            7.0828    0.4720   -0.0156 C.2       1 MOL1        0.2736
     19 N            8.2312    0.9987    0.2656 N.2       1 MOL1       -0.5207
     20 C            9.3786    0.0858    0.0721 C.3       1 MOL1       -0.0241
     21 C            8.6410   -1.2073   -0.4134 C.3       1 MOL1       -0.0253
     22 N            7.2262   -0.7903   -0.4323 N.am      1 MOL1       -0.2377
     23 C            3.5694    1.4696   -0.3469 C.ar      1 MOL1       -0.0991
     24 C            2.2786    1.0163   -0.3212 C.ar      1 MOL1       -0.0547
     25 C           -2.1650   -1.4501   -0.4962 C.ar      1 MOL1       -0.0737
     26 C           -3.4953   -1.6903   -0.4336 C.ar      1 MOL1       -0.0698
     27 C           -4.3929   -0.6320   -0.1979 C.ar      1 MOL1       -0.0247
     28 C           -5.7776   -0.8447   -0.1550 C.ar      1 MOL1       -0.0394
     29  H          -9.8708    0.7151    0.1332 H         1 MOL1        0.2753
     30  H          -8.7527    1.7373    0.0959 H         1 MOL1        0.2753
     31  H          -9.4429   -1.4783    0.0600 H         1 MOL1        0.2200
     32  H          -6.7397    2.2612    0.3979 H         1 MOL1        0.0910
     33  H          -4.4379    2.6524    0.3405 H         1 MOL1        0.0910
     34  H          -2.1514    1.8098    0.0386 H         1 MOL1        0.0928
     35  H           2.8290   -1.9978    0.8959 H         1 MOL1        0.0910
     36  H           5.0565   -1.2171    0.8516 H         1 MOL1        0.0919
     37  H           5.9954    2.0291    0.1434 H         1 MOL1        0.2053
     38  H           9.9577   -0.1078    1.1057 H         1 MOL1        0.0600
     39  H          10.1177    0.5058   -0.7749 H         1 MOL1        0.0600
     40  H           9.0075   -1.5191   -1.5134 H         1 MOL1        0.0581
     41  H           8.8065   -2.1056    0.3655 H         1 MOL1        0.0581
     42  H           6.5677   -1.3029   -0.7066 H         1 MOL1        0.2764
     43  H           3.7646    2.3950   -0.6730 H         1 MOL1        0.0919
     44  H           1.5387    1.6137   -0.6307 H         1 MOL1        0.0910
     45  H          -1.5367   -2.2077   -0.6740 H         1 MOL1        0.0924
     46  H          -3.8422   -2.6199   -0.5612 H         1 MOL1        0.0910
     47  H          -6.1390   -1.7679   -0.2848 H         1 MOL1        0.0914
@<TRIPOS>BOND
     1      1      2 am
     2      2      3 2 
     3      2      4 1 
     4      4      5 ar
     5      5      6 ar
     6      6      7 ar
     7      7      8 ar
     8      8      9 ar
     9      9     10 1 
    10      9     25 ar
    11     10     11 1 
    12     11     12 2 
    13     11     13 1 
    14     13     14 ar
    15     14     15 ar
    16     15     16 ar
    17     16     17 1 
    18     16     23 ar
    19     17     18 am
    20     18     19 2 
    21     19     20 1 
    22     20     21 1 
    23     21     22 1 
    24     22     18 am
    25     23     24 ar
    26     24     13 ar
    27     25     26 ar
    28     26     27 ar
    29     27      7 ar
    30     27     28 ar
    31     28      4 ar
    32      1     29 1 
    33      1     30 1 
    34      3     31 1 
    35      5     32 1 
    36      6     33 1 
    37      8     34 1 
    38     14     35 1 
    39     15     36 1 
    40     17     37 1 
    41     20     38 1 
    42     20     39 1 
    43     21     40 1 
    44     21     41 1 
    45     22     42 1 
    46     23     43 1 
    47     24     44 1 
    48     25     45 1 
    49     26     46 1 
    50     28     47 1 
@<TRIPOS>SUBSTRUCTURE
     1 MOL1         1 MOLECULE          1 A
