# Molecule written by the XED library from Cresset
@<TRIPOS>MOLECULE
CHEMBL599648
    53     54      1
SMALL
USER_CHARGES
@<TRIPOS>ATOM
      1 C           -1.9631    4.4930   -0.5424 C.3       1 MOL1       -0.1166
      2 C           -2.7615    3.2717   -0.0504 C.3       1 MOL1       -0.0496
      3 C           -4.1282    3.2888   -0.7649 C.3       1 MOL1       -0.1166
      4 C           -2.9681    3.4253    1.4677 C.3       1 MOL1       -0.1166
      5 C           -1.9184    2.0168   -0.4027 C.3       1 MOL1       -0.0576
      6 C           -2.4417    0.6230    0.0269 C.3       1 MOL1        0.0335
      7 N           -3.6914    0.2803   -0.6615 N.3       1 MOL1       -0.5866
      8 C           -1.4328   -0.4390   -0.3760 C.2       1 MOL1        0.2922
      9 O           -0.5065   -0.1906   -1.1361 O.2       1 MOL1       -0.4176
     10 N           -1.6634   -1.6614    0.1462 N.am      1 MOL1       -0.3905
     11 C           -2.7069   -1.9688    1.1433 C.3       1 MOL1        0.0725
     12 C           -2.8567   -3.4861    0.9727 C.3       1 MOL1       -0.0686
     13 C           -1.4594   -3.9647    0.5710 C.3       1 MOL1       -0.0562
     14 C           -0.8819   -2.8321   -0.2922 C.3       1 MOL1        0.1603
     15 C            0.6225   -2.8137   -0.1132 C.2       1 MOL1        0.3241
     16 O            1.3290   -3.6997   -0.5748 O.2       1 MOL1       -0.4176
     17 N            1.0663   -1.7657    0.6012 N.am      1 MOL1       -0.3832
     18 C            2.4804   -1.7030    1.0048 C.3       1 MOL1        0.1148
     19 C            3.2245   -0.4490    0.5696 C.ar      1 MOL1       -0.0376
     20 C            4.5752   -0.5509    0.3171 C.ar      1 MOL1       -0.0898
     21 C            5.3028    0.5560   -0.0560 C.ar      1 MOL1       -0.0836
     22 C            4.6807    1.7761   -0.1791 C.ar      1 MOL1       -0.0642
     23 C            3.3314    1.8865    0.0713 C.ar      1 MOL1        0.0434
     24 Cl           2.5468    3.4308   -0.0823 Cl        1 MOL1       -0.1082
     25 C            2.6059    0.7765    0.4457 C.ar      1 MOL1       -0.0581
     26 H           -2.5852    0.6094    1.2176 H         1 MOL1        0.0651
     27 H           -1.1434   -3.0477   -1.4438 H         1 MOL1        0.0678
     28  H          -1.8089    4.4127   -1.7302 H         1 MOL1        0.0438
     29  H          -2.5449    5.5098   -0.2806 H         1 MOL1        0.0438
     30  H          -0.8887    4.5226   -0.0101 H         1 MOL1        0.0438
     31  H          -4.5706    4.4034   -0.8190 H         1 MOL1        0.0438
     32  H          -4.0056    2.8589   -1.8787 H         1 MOL1        0.0438
     33  H          -4.9181    2.6195   -0.1610 H         1 MOL1        0.0438
     34  H          -3.6559    2.5430    1.9017 H         1 MOL1        0.0438
     35  H          -3.5103    4.4736    1.6847 H         1 MOL1        0.0438
     36  H          -1.9014    3.4172    2.0176 H         1 MOL1        0.0438
     37  H          -0.8395    2.1435    0.1084 H         1 MOL1        0.0481
     38  H          -1.7621    1.9944   -1.5919 H         1 MOL1        0.0481
     39  H          -4.4964    0.8166   -0.3231 H         1 MOL1        0.2741
     40  H          -3.5956    0.3166   -1.6830 H         1 MOL1        0.2741
     41  H          -2.3132   -1.7086    2.2472 H         1 MOL1        0.0593
     42  H          -3.7633   -1.4450    0.9247 H         1 MOL1        0.0593
     43  H          -3.6165   -3.7062    0.0705 H         1 MOL1        0.0474
     44  H          -3.2406   -4.0128    1.9806 H         1 MOL1        0.0474
     45  H          -1.5026   -5.0024   -0.0305 H         1 MOL1        0.0479
     46  H          -0.7915   -4.0841    1.5605 H         1 MOL1        0.0479
     47  H           0.5132   -1.1298    0.8548 H         1 MOL1        0.2040
     48  H           3.0463   -2.6665    0.5662 H         1 MOL1        0.0620
     49  H           2.5245   -1.7614    2.2025 H         1 MOL1        0.0620
     50  H           5.0312   -1.4362    0.4089 H         1 MOL1        0.0908
     51  H           6.2829    0.4734   -0.2361 H         1 MOL1        0.0906
     52  H           5.2075    2.5820   -0.4489 H         1 MOL1        0.0939
     53  H           1.6270    0.8609    0.6304 H         1 MOL1        0.0941
@<TRIPOS>BOND
     1      1      2 1 
     2      2      3 1 
     3      2      4 1 
     4      2      5 1 
     5      5      6 1 
     6      6      7 1 
     7      6      8 1 
     8      8      9 2 
     9      8     10 am
    10     10     11 1 
    11     11     12 1 
    12     12     13 1 
    13     13     14 1 
    14     14     10 1 
    15     14     15 1 
    16     15     16 2 
    17     15     17 am
    18     17     18 1 
    19     18     19 1 
    20     19     20 ar
    21     20     21 ar
    22     21     22 ar
    23     22     23 ar
    24     23     24 1 
    25     23     25 ar
    26     25     19 ar
    27      1     28 1 
    28      1     29 1 
    29      1     30 1 
    30      3     31 1 
    31      3     32 1 
    32      3     33 1 
    33      4     34 1 
    34      4     35 1 
    35      4     36 1 
    36      5     37 1 
    37      5     38 1 
    38      6     26 1 
    39      7     39 1 
    40      7     40 1 
    41     11     41 1 
    42     11     42 1 
    43     12     43 1 
    44     12     44 1 
    45     13     45 1 
    46     13     46 1 
    47     14     27 1 
    48     17     47 1 
    49     18     48 1 
    50     18     49 1 
    51     20     50 1 
    52     21     51 1 
    53     22     52 1 
    54     25     53 1 
@<TRIPOS>SUBSTRUCTURE
     1 MOL1         1 MOLECULE          1 A
