# Molecule written by the XED library from Cresset
@<TRIPOS>MOLECULE
CHEMBL73737
    43     46      1
SMALL
USER_CHARGES
@<TRIPOS>ATOM
      1 N           -7.7576    1.2014    0.0016 N.am      1 MOL1       -0.4220
      2 C           -6.8707    0.1759   -0.0142 C.2       1 MOL1        0.1481
      3 N           -7.2551   -1.0713    0.0066 N.2       1 MOL1       -0.5925
      4 C           -5.4055    0.4373   -0.0512 C.ar      1 MOL1       -0.0232
      5 C           -4.8729    1.7441   -0.1425 C.ar      1 MOL1       -0.0740
      6 C           -3.5276    1.9810   -0.1717 C.ar      1 MOL1       -0.0908
      7 C           -2.7033    0.8688   -0.1071 C.ar      1 MOL1        0.0821
      8 N           -1.3238    0.8619   -0.1154 N.pl3     1 MOL1       -0.1581
      9 C           -0.9860   -0.4406   -0.0277 C.ar      1 MOL1        0.2206
     10 N           -2.0759   -1.2111    0.0288 N.ar      1 MOL1       -0.4006
     11 C           -3.1871   -0.4042   -0.0196 C.ar      1 MOL1        0.0255
     12 C           -4.5582   -0.6474    0.0083 C.ar      1 MOL1       -0.0499
     13 C            0.3801   -0.9183    0.0088 C.ar      1 MOL1        0.0097
     14 C            0.5587   -2.2819    0.1782 C.ar      1 MOL1       -0.0368
     15 C            1.8203   -2.8184    0.2287 C.ar      1 MOL1        0.0365
     16 Cl           2.0302   -4.5303    0.4451 Cl        1 MOL1       -0.1091
     17 C            2.9219   -2.0023    0.1156 C.ar      1 MOL1       -0.0410
     18 C            2.7932   -0.6329   -0.0558 C.ar      1 MOL1       -0.0089
     19 C            1.5023   -0.0993   -0.1184 C.ar      1 MOL1        0.0979
     20 O            1.3204    1.2322   -0.3230 O.3       1 MOL1       -0.3755
     21 C            4.0160    0.1649   -0.1443 C.ar      1 MOL1       -0.0184
     22 C            5.1835   -0.3675   -0.6771 C.ar      1 MOL1       -0.1194
     23 C            6.3405    0.3731   -0.7490 C.ar      1 MOL1       -0.0874
     24 C            6.3627    1.6682   -0.2918 C.ar      1 MOL1       -0.1195
     25 C            5.2155    2.2259    0.2424 C.ar      1 MOL1        0.0239
     26 N            5.2268    3.5406    0.7089 N.pl3     1 MOL1       -0.4888
     27 C            4.0596    1.4718    0.3146 C.ar      1 MOL1       -0.1128
     28 H           -0.7912    1.5590   -0.1601 H         1 MOL1        0.2049
     29  H          -8.6226    1.0416    0.0215 H         1 MOL1        0.2753
     30  H          -7.4797    2.0344   -0.0058 H         1 MOL1        0.2753
     31  H          -8.2509   -1.1621    0.0326 H         1 MOL1        0.2200
     32  H          -5.4934    2.5250   -0.1877 H         1 MOL1        0.0910
     33  H          -3.1570    2.9075   -0.2354 H         1 MOL1        0.0919
     34  H          -4.9163   -1.5789    0.0719 H         1 MOL1        0.0923
     35  H          -0.2373   -2.8811    0.2647 H         1 MOL1        0.0943
     36  H           3.8328   -2.4096    0.1673 H         1 MOL1        0.0943
     37  H           2.0878    1.6359   -0.8317 H         1 MOL1        0.3295
     38  H           5.1871   -1.3062   -1.0194 H         1 MOL1        0.0910
     39  H           7.1683   -0.0329   -1.1360 H         1 MOL1        0.0906
     40  H           7.2049    2.2052   -0.3449 H         1 MOL1        0.0917
     41  H           5.9088    4.0544    0.4909 H         1 MOL1        0.2750
     42  H           4.4538    3.9328    0.8653 H         1 MOL1        0.2750
     43  H           3.2371    1.8800    0.7103 H         1 MOL1        0.0921
@<TRIPOS>BOND
     1      1      2 am
     2      2      3 2 
     3      2      4 1 
     4      4      5 ar
     5      5      6 ar
     6      6      7 ar
     7      7      8 ar
     8      8      9 ar
     9      9     10 ar
    10      9     13 1 
    11     10     11 ar
    12     11      7 ar
    13     11     12 ar
    14     12      4 ar
    15     13     14 ar
    16     14     15 ar
    17     15     16 1 
    18     15     17 ar
    19     17     18 ar
    20     18     19 ar
    21     18     21 1 
    22     19     13 ar
    23     19     20 1 
    24     21     22 ar
    25     22     23 ar
    26     23     24 ar
    27     24     25 ar
    28     25     26 1 
    29     25     27 ar
    30     27     21 ar
    31      1     29 1 
    32      1     30 1 
    33      3     31 1 
    34      5     32 1 
    35      6     33 1 
    36      8     28 1 
    37     12     34 1 
    38     14     35 1 
    39     17     36 1 
    40     20     37 1 
    41     22     38 1 
    42     23     39 1 
    43     24     40 1 
    44     26     41 1 
    45     26     42 1 
    46     27     43 1 
@<TRIPOS>SUBSTRUCTURE
     1 MOL1         1 MOLECULE          1 A
