# Molecule written by the XED library from Cresset
@<TRIPOS>MOLECULE
CHEMBL330125
    55     58      1
SMALL
USER_CHARGES
@<TRIPOS>ATOM
      1 N           -6.5731   -3.4581    0.0049 N.am      1 MOL1       -0.4206
      2 C           -5.3930   -2.7914   -0.0206 C.2       1 MOL1        0.1547
      3 N           -4.2465   -3.4127   -0.0245 N.2       1 MOL1       -0.5832
      4 C           -5.3584   -1.3020   -0.0447 C.ar      1 MOL1       -0.0081
      5 C           -6.5035   -0.5179   -0.0339 C.ar      1 MOL1       -0.0850
      6 C           -6.4130    0.8527   -0.0540 C.ar      1 MOL1       -0.0862
      7 C           -5.1823    1.4626   -0.0859 C.ar      1 MOL1       -0.0858
      8 C           -4.0189    0.7094   -0.0989 C.ar      1 MOL1        0.0752
      9 C           -4.1269   -0.6695   -0.0776 C.ar      1 MOL1       -0.0734
     10 N           -2.7584    1.3386   -0.1234 N.am      1 MOL1       -0.2416
     11 C           -2.6703    2.7960    0.0623 C.3       1 MOL1        0.0973
     12 C           -1.1498    3.0692    0.0919 C.3       1 MOL1        0.0944
     13 N           -0.6076    1.7282   -0.1595 N.am      1 MOL1       -0.4008
     14 C            0.8255    1.3842   -0.2462 C.3       1 MOL1        0.0979
     15 C            1.2112    0.5218    0.9712 C.3       1 MOL1       -0.0547
     16 C            2.6604   -0.0055    0.8424 C.3       1 MOL1       -0.0429
     17 N            3.6058    0.9074    0.1548 N.3       1 MOL1       -0.2519
     18 C            4.9769    0.7442    0.6883 C.3       1 MOL1       -0.0032
     19 C            5.7346   -0.5052    0.2491 C.ar      1 MOL1       -0.0509
     20 C            5.3139   -1.7659    0.6139 C.ar      1 MOL1       -0.0846
     21 C            6.0214   -2.8799    0.2233 C.ar      1 MOL1       -0.0900
     22 C            7.1609   -2.7404   -0.5349 C.ar      1 MOL1       -0.0906
     23 C            7.5895   -1.4856   -0.9011 C.ar      1 MOL1       -0.0900
     24 C            6.8779   -0.3745   -0.5104 C.ar      1 MOL1       -0.0846
     25 C            3.1701    2.3057    0.3072 C.3       1 MOL1       -0.0429
     26 C            1.8154    2.5691   -0.3884 C.3       1 MOL1       -0.0547
     27 C           -1.5460    0.7742   -0.2842 C.2       1 MOL1        0.4233
     28 O           -1.3285   -0.4200   -0.5060 O.2       1 MOL1       -0.4526
     29  H          -6.5872   -4.3378    0.0219 H         1 MOL1        0.2753
     30  H          -7.3350   -3.0208    0.0053 H         1 MOL1        0.2753
     31  H          -4.3530   -4.4070   -0.0079 H         1 MOL1        0.2200
     32  H          -7.4050   -0.9465   -0.0104 H         1 MOL1        0.0910
     33  H          -7.2443    1.4086   -0.0445 H         1 MOL1        0.0906
     34  H          -5.1248    2.4609   -0.0985 H         1 MOL1        0.0919
     35  H          -3.2969   -1.2258   -0.0838 H         1 MOL1        0.0923
     36  H          -3.1955    3.1119    1.0943 H         1 MOL1        0.0607
     37  H          -3.1943    3.3593   -0.8595 H         1 MOL1        0.0607
     38  H          -0.8023    3.4703    1.1688 H         1 MOL1        0.0605
     39  H          -0.8357    3.8310   -0.7815 H         1 MOL1        0.0605
     40  H           0.9613    0.6786   -1.2074 H         1 MOL1        0.0618
     41  H           1.1143    1.2044    1.9545 H         1 MOL1        0.0487
     42  H           0.4613   -0.4092    1.0721 H         1 MOL1        0.0487
     43  H           3.0190   -0.2838    1.9538 H         1 MOL1        0.0568
     44  H           2.6382   -1.0256    0.2102 H         1 MOL1        0.0568
     45  H           5.6365    1.6793    0.3249 H         1 MOL1        0.0598
     46  H           4.9682    0.7984    1.8872 H         1 MOL1        0.0598
     47  H           4.4882   -1.8724    1.1681 H         1 MOL1        0.0908
     48  H           5.7086   -3.7910    0.4914 H         1 MOL1        0.0906
     49  H           7.6769   -3.5491   -0.8184 H         1 MOL1        0.0906
     50  H           8.4190   -1.3809   -1.4499 H         1 MOL1        0.0906
     51  H           7.1977    0.5341   -0.7784 H         1 MOL1        0.0908
     52  H           3.0757    2.5416    1.4803 H         1 MOL1        0.0568
     53  H           3.9679    3.0622   -0.1740 H         1 MOL1        0.0568
     54  H           1.3692    3.5675    0.1029 H         1 MOL1        0.0487
     55  H           1.9992    2.7836   -1.5557 H         1 MOL1        0.0487
@<TRIPOS>BOND
     1      1      2 am
     2      2      3 2 
     3      2      4 1 
     4      4      5 ar
     5      5      6 ar
     6      6      7 ar
     7      7      8 ar
     8      8      9 ar
     9      8     10 1 
    10      9      4 ar
    11     10     11 1 
    12     11     12 1 
    13     12     13 1 
    14     13     14 1 
    15     13     27 am
    16     14     15 1 
    17     15     16 1 
    18     16     17 1 
    19     17     18 1 
    20     17     25 1 
    21     18     19 1 
    22     19     20 ar
    23     20     21 ar
    24     21     22 ar
    25     22     23 ar
    26     23     24 ar
    27     24     19 ar
    28     25     26 1 
    29     26     14 1 
    30     27     10 am
    31     27     28 2 
    32      1     29 1 
    33      1     30 1 
    34      3     31 1 
    35      5     32 1 
    36      6     33 1 
    37      7     34 1 
    38      9     35 1 
    39     11     36 1 
    40     11     37 1 
    41     12     38 1 
    42     12     39 1 
    43     14     40 1 
    44     15     41 1 
    45     15     42 1 
    46     16     43 1 
    47     16     44 1 
    48     18     45 1 
    49     18     46 1 
    50     20     47 1 
    51     21     48 1 
    52     22     49 1 
    53     23     50 1 
    54     24     51 1 
    55     25     52 1 
    56     25     53 1 
    57     26     54 1 
    58     26     55 1 
@<TRIPOS>SUBSTRUCTURE
     1 MOL1         1 MOLECULE          1 A
