# Molecule written by the XED library from Cresset
@<TRIPOS>MOLECULE
CHEMBL64097
    35     36      1
SMALL
USER_CHARGES
@<TRIPOS>ATOM
      1 C           -4.4852   -3.0449   -0.0020 C.3       1 MOL1       -0.0802
      2 C           -4.0341   -1.5988   -0.0016 C.ar      1 MOL1       -0.0783
      3 C           -4.9577   -0.5719   -0.0015 C.ar      1 MOL1       -0.0593
      4 C           -4.5327    0.7322   -0.0010 C.ar      1 MOL1        0.0398
      5 I           -5.9396    2.2869   -0.0006 I         1 MOL1       -0.0532
      6 C           -3.1794    1.0152   -0.0006 C.ar      1 MOL1        0.0941
      7 O           -2.7556    2.3042   -0.0001 O.3       1 MOL1       -0.3754
      8 C           -2.2324   -0.0060   -0.0004 C.ar      1 MOL1        0.0126
      9 C           -2.6915   -1.3200   -0.0011 C.ar      1 MOL1       -0.0628
     10 C           -0.7941    0.3581    0.0012 C.2       1 MOL1        0.3231
     11 O           -0.5533    1.5628   -0.0032 O.2       1 MOL1       -0.4159
     12 N            0.1707   -0.5963    0.0084 N.am      1 MOL1       -0.2166
     13 C            1.5632   -0.4154    0.0037 C.ar      1 MOL1        0.0896
     14 C            2.4054   -1.5133   -0.0015 C.ar      1 MOL1       -0.0996
     15 C            3.7681   -1.3561   -0.0038 C.ar      1 MOL1       -0.0553
     16 C            4.3637   -0.0958   -0.0010 C.ar      1 MOL1       -0.0292
     17 C            3.4989    0.9946    0.0032 C.ar      1 MOL1       -0.0553
     18 C            2.1379    0.8441    0.0056 C.ar      1 MOL1       -0.0996
     19 C            5.8495    0.1163   -0.0016 C.2       1 MOL1        0.1447
     20 N            6.6947   -0.8818   -0.0011 N.2       1 MOL1       -0.5956
     21 N            6.3461    1.3758   -0.0021 N.am      1 MOL1       -0.4228
     22  H          -5.6834   -3.1205   -0.0021 H         1 MOL1        0.0465
     23  H          -4.0551   -3.5917    0.9758 H         1 MOL1        0.0465
     24  H          -4.0549   -3.5912   -0.9800 H         1 MOL1        0.0465
     25  H          -5.9360   -0.7790   -0.0018 H         1 MOL1        0.0929
     26  H          -3.5287    2.9482   -0.0005 H         1 MOL1        0.3295
     27  H          -2.0409   -2.0775   -0.0013 H         1 MOL1        0.0912
     28  H          -0.1014   -1.4320    0.0186 H         1 MOL1        0.2056
     29  H           2.0153   -2.4341   -0.0032 H         1 MOL1        0.0919
     30  H           4.3297   -2.1790   -0.0072 H         1 MOL1        0.0910
     31  H           3.8686    1.9206    0.0050 H         1 MOL1        0.0910
     32  H           1.5591    1.6571    0.0092 H         1 MOL1        0.0919
     33  H           6.2651   -1.7783   -0.0001 H         1 MOL1        0.2200
     34  H           5.8209    2.0781   -0.0031 H         1 MOL1        0.2753
     35  H           7.2182    1.4931   -0.0014 H         1 MOL1        0.2753
@<TRIPOS>BOND
     1      1      2 1 
     2      2      3 ar
     3      3      4 ar
     4      4      5 1 
     5      4      6 ar
     6      6      7 1 
     7      6      8 ar
     8      8      9 ar
     9      8     10 1 
    10      9      2 ar
    11     10     11 2 
    12     10     12 am
    13     12     13 1 
    14     13     14 ar
    15     14     15 ar
    16     15     16 ar
    17     16     17 ar
    18     16     19 1 
    19     17     18 ar
    20     18     13 ar
    21     19     20 2 
    22     19     21 am
    23      1     22 1 
    24      1     23 1 
    25      1     24 1 
    26      3     25 1 
    27      7     26 1 
    28      9     27 1 
    29     12     28 1 
    30     14     29 1 
    31     15     30 1 
    32     17     31 1 
    33     18     32 1 
    34     20     33 1 
    35     21     34 1 
    36     21     35 1 
@<TRIPOS>SUBSTRUCTURE
     1 MOL1         1 MOLECULE          1 A
