# Molecule written by the XED library from Cresset
@<TRIPOS>MOLECULE
CHEMBL64676
    44     46      1
SMALL
USER_CHARGES
@<TRIPOS>ATOM
      1 C           -7.7334   -1.3032   -0.4425 C.3       1 MOL1       -0.1169
      2 C           -6.2459   -1.6651   -0.3135 C.3       1 MOL1       -0.0499
      3 C           -6.0640   -2.5531    0.9298 C.3       1 MOL1       -0.1169
      4 C           -5.4218   -0.3695   -0.1862 C.3       1 MOL1       -0.0227
      5 O           -4.0021   -0.6220   -0.2763 O.3       1 MOL1       -0.1986
      6 C           -3.1488    0.4059   -0.1274 C.ar      1 MOL1        0.0698
      7 C           -3.5761    1.7081    0.0432 C.ar      1 MOL1       -0.0676
      8 C           -2.6610    2.7268    0.2007 C.ar      1 MOL1       -0.1008
      9 C           -1.3186    2.4533    0.1932 C.ar      1 MOL1       -0.0755
     10 C           -0.8533    1.1537    0.0246 C.ar      1 MOL1        0.0056
     11 C           -1.7884    0.1354   -0.1413 C.ar      1 MOL1        0.0899
     12 O           -1.3930   -1.1576   -0.3134 O.3       1 MOL1       -0.3756
     13 C            0.5670    0.8733    0.0330 C.ar      1 MOL1        0.2195
     14 N            1.1190   -0.3229   -0.1830 N.ar      1 MOL1       -0.4001
     15 C            2.4832   -0.2048   -0.0676 C.ar      1 MOL1        0.0255
     16 C            3.5396   -1.1057   -0.1785 C.ar      1 MOL1       -0.0500
     17 C            4.8145   -0.6210    0.0212 C.ar      1 MOL1       -0.0232
     18 C            5.0168    0.7447    0.3184 C.ar      1 MOL1       -0.0740
     19 C            3.9788    1.6272    0.4245 C.ar      1 MOL1       -0.0908
     20 C            2.7079    1.1101    0.2223 C.ar      1 MOL1        0.0822
     21 N            1.5142    1.8004    0.2831 N.pl3     1 MOL1       -0.1582
     22 C            5.9929   -1.5269   -0.0792 C.2       1 MOL1        0.1479
     23 N            5.9312   -2.7588    0.3508 N.2       1 MOL1       -0.5921
     24 N            7.1356   -1.0494   -0.6200 N.am      1 MOL1       -0.4220
     25 H            1.4040    2.6556    0.4567 H         1 MOL1        0.2049
     26  H          -8.3820   -2.3090   -0.5300 H         1 MOL1        0.0435
     27  H          -8.0796   -0.6889    0.5284 H         1 MOL1        0.0435
     28  H          -7.9052   -0.6330   -1.4229 H         1 MOL1        0.0435
     29  H          -5.9099   -2.2708   -1.2939 H         1 MOL1        0.0501
     30  H          -4.9076   -2.8541    1.0406 H         1 MOL1        0.0435
     31  H          -6.4155   -1.9503    1.9061 H         1 MOL1        0.0435
     32  H          -6.7265   -3.5468    0.8128 H         1 MOL1        0.0435
     33  H          -5.7315    0.3746   -1.0752 H         1 MOL1        0.0645
     34  H          -5.6813    0.1474    0.8658 H         1 MOL1        0.0645
     35  H          -4.5538    1.9168    0.0548 H         1 MOL1        0.0924
     36  H          -2.9777    3.6674    0.3231 H         1 MOL1        0.0906
     37  H          -0.6681    3.2022    0.3117 H         1 MOL1        0.0910
     38  H          -0.3928   -1.2495   -0.2990 H         1 MOL1        0.3295
     39  H           3.3736   -2.0668   -0.3976 H         1 MOL1        0.0923
     40  H           5.9499    1.0766    0.4570 H         1 MOL1        0.0910
     41  H           4.1273    2.5930    0.6371 H         1 MOL1        0.0919
     42  H           5.0460   -2.9886    0.7546 H         1 MOL1        0.2200
     43  H           7.1802   -0.2217   -0.9175 H         1 MOL1        0.2753
     44  H           7.8415   -1.5717   -0.6783 H         1 MOL1        0.2753
@<TRIPOS>BOND
     1      1      2 1 
     2      2      3 1 
     3      2      4 1 
     4      4      5 1 
     5      5      6 1 
     6      6      7 ar
     7      7      8 ar
     8      8      9 ar
     9      9     10 ar
    10     10     11 ar
    11     10     13 1 
    12     11      6 ar
    13     11     12 1 
    14     13     14 ar
    15     14     15 ar
    16     15     16 ar
    17     16     17 ar
    18     17     18 ar
    19     17     22 1 
    20     18     19 ar
    21     19     20 ar
    22     20     15 ar
    23     20     21 ar
    24     21     13 ar
    25     22     23 2 
    26     22     24 am
    27      1     26 1 
    28      1     27 1 
    29      1     28 1 
    30      2     29 1 
    31      3     30 1 
    32      3     31 1 
    33      3     32 1 
    34      4     33 1 
    35      4     34 1 
    36      7     35 1 
    37      8     36 1 
    38      9     37 1 
    39     12     38 1 
    40     16     39 1 
    41     18     40 1 
    42     19     41 1 
    43     21     25 1 
    44     23     42 1 
    45     24     43 1 
    46     24     44 1 
@<TRIPOS>SUBSTRUCTURE
     1 MOL1         1 MOLECULE          1 A
