# Molecule written by the XED library from Cresset
@<TRIPOS>MOLECULE
CHEMBL3632760
    46     49      1
SMALL
USER_CHARGES
@<TRIPOS>ATOM
      1 N           -7.5149    1.2276    0.0272 N.am      1 MOL1       -0.4219
      2 C           -6.6665    0.1701    0.0084 C.2       1 MOL1        0.1475
      3 N           -7.0958   -1.0622   -0.0197 N.2       1 MOL1       -0.5934
      4 C           -5.1934    0.3755    0.0183 C.ar      1 MOL1       -0.0256
      5 C           -4.6075    1.6444    0.2084 C.ar      1 MOL1       -0.0697
      6 C           -3.2533    1.8171    0.2269 C.ar      1 MOL1       -0.0934
      7 C           -2.4629    0.6890    0.0499 C.ar      1 MOL1        0.0749
      8 N           -1.1013    0.6728    0.0502 N.pl3     1 MOL1       -0.1762
      9 C           -0.7745   -0.6516   -0.1569 C.ar      1 MOL1        0.0696
     10 C           -1.8777   -1.4139   -0.2818 C.ar      1 MOL1       -0.1153
     11 C           -3.0098   -0.5602   -0.1442 C.ar      1 MOL1       -0.0368
     12 C           -4.3889   -0.7291   -0.1596 C.ar      1 MOL1       -0.0522
     13 C            0.6098   -1.0741   -0.2074 C.ar      1 MOL1        0.0869
     14 C            0.9340   -2.3753   -0.5528 C.ar      1 MOL1       -0.0663
     15 C            2.2462   -2.7461   -0.5863 C.ar      1 MOL1       -0.0400
     16 C            3.2006   -1.8141   -0.2675 C.ar      1 MOL1       -0.0728
     17 C            2.8204   -0.5360    0.0747 C.ar      1 MOL1        0.0747
     18 N            1.5322   -0.1344    0.1028 N.ar      1 MOL1       -0.3413
     19 C            3.8846    0.5023    0.4334 C.3       1 MOL1        0.1228
     20 F            3.3014    1.3403    1.3817 F         1 MOL1       -0.2077
     21 C            5.1874   -0.0543    1.0791 C.3       1 MOL1       -0.0456
     22 C            6.3364   -0.1723    0.0572 C.3       1 MOL1       -0.0854
     23 C            6.7215    1.2212   -0.4900 C.3       1 MOL1       -0.0919
     24 C            5.5052    2.1716   -0.5959 C.3       1 MOL1       -0.0854
     25 C            4.2065    1.3705   -0.8101 C.3       1 MOL1       -0.0456
     26 H           -0.5533    1.3543    0.1571 H         1 MOL1        0.2043
     27  H          -8.3854    1.0997    0.0387 H         1 MOL1        0.2753
     28  H          -7.2059    2.0501    0.0245 H         1 MOL1        0.2753
     29  H          -8.0945   -1.1168   -0.0229 H         1 MOL1        0.2200
     30  H          -5.1930    2.4431    0.3373 H         1 MOL1        0.0910
     31  H          -2.8464    2.7201    0.3646 H         1 MOL1        0.0919
     32  H          -1.9015   -2.4014   -0.4355 H         1 MOL1        0.0923
     33  H          -4.7900   -1.6351   -0.2951 H         1 MOL1        0.0914
     34  H           0.2181   -3.0357   -0.7766 H         1 MOL1        0.0919
     35  H           2.5069   -3.6788   -0.8354 H         1 MOL1        0.0906
     36  H           4.1677   -2.0650   -0.2797 H         1 MOL1        0.0917
     37  H           4.9914   -1.1164    1.6030 H         1 MOL1        0.0495
     38  H           5.5667    0.7083    1.9254 H         1 MOL1        0.0495
     39  H           7.2954   -0.6698    0.5793 H         1 MOL1        0.0460
     40  H           5.9832   -0.8730   -0.8505 H         1 MOL1        0.0460
     41  H           7.5398    1.7149    0.2366 H         1 MOL1        0.0460
     42  H           7.2161    1.0806   -1.5748 H         1 MOL1        0.0460
     43  H           5.6687    2.9409   -1.5024 H         1 MOL1        0.0460
     44  H           5.3862    2.7917    0.4252 H         1 MOL1        0.0460
     45  H           3.2973    2.1239   -1.0265 H         1 MOL1        0.0495
     46  H           4.3614    0.6701   -1.7726 H         1 MOL1        0.0495
@<TRIPOS>BOND
     1      1      2 am
     2      2      3 2 
     3      2      4 1 
     4      4      5 ar
     5      5      6 ar
     6      6      7 ar
     7      7      8 ar
     8      8      9 ar
     9      9     10 ar
    10      9     13 1 
    11     10     11 ar
    12     11      7 ar
    13     11     12 ar
    14     12      4 ar
    15     13     14 ar
    16     14     15 ar
    17     15     16 ar
    18     16     17 ar
    19     17     18 ar
    20     17     19 1 
    21     18     13 ar
    22     19     20 1 
    23     19     21 1 
    24     21     22 1 
    25     22     23 1 
    26     23     24 1 
    27     24     25 1 
    28     25     19 1 
    29      1     27 1 
    30      1     28 1 
    31      3     29 1 
    32      5     30 1 
    33      6     31 1 
    34      8     26 1 
    35     10     32 1 
    36     12     33 1 
    37     14     34 1 
    38     15     35 1 
    39     16     36 1 
    40     21     37 1 
    41     21     38 1 
    42     22     39 1 
    43     22     40 1 
    44     23     41 1 
    45     23     42 1 
    46     24     43 1 
    47     24     44 1 
    48     25     45 1 
    49     25     46 1 
@<TRIPOS>SUBSTRUCTURE
     1 MOL1         1 MOLECULE          1 A
