# Molecule written by the XED library from Cresset
@<TRIPOS>MOLECULE
CHEMBL130119
    62     64      1
SMALL
USER_CHARGES
@<TRIPOS>ATOM
      1 N            4.2106   -1.5294    0.9816 N.3       1 MOL1       -0.5857
      2 C            3.6258   -0.7988   -0.1502 C.3       1 MOL1        0.0365
      3 C            4.3899    0.5180   -0.4437 C.3       1 MOL1       -0.0383
      4 C            5.8220    0.1975   -0.9355 C.3       1 MOL1       -0.0848
      5 C            6.5909    1.4882   -1.2819 C.3       1 MOL1       -0.0916
      6 C            6.6520    2.4172   -0.0544 C.3       1 MOL1       -0.0921
      7 C            5.2239    2.7539    0.4151 C.3       1 MOL1       -0.0916
      8 C            4.4665    1.4612    0.7809 C.3       1 MOL1       -0.0848
      9 C            2.1436   -0.6053    0.1309 C.2       1 MOL1        0.2929
     10 O            1.7086    0.4211    0.6345 O.2       1 MOL1       -0.4176
     11 N            1.3633   -1.6580   -0.1986 N.am      1 MOL1       -0.3905
     12 C            1.8374   -2.8880   -0.8622 C.3       1 MOL1        0.0725
     13 C            0.6023   -3.7969   -0.8019 C.3       1 MOL1       -0.0686
     14 C           -0.5759   -2.8208   -0.7593 C.3       1 MOL1       -0.0562
     15 C           -0.0724   -1.6760    0.1316 C.3       1 MOL1        0.1604
     16 C           -0.8156   -0.3875   -0.1460 C.2       1 MOL1        0.3237
     17 O           -0.3684    0.4811   -0.8820 O.2       1 MOL1       -0.4176
     18 N           -1.9793   -0.3192    0.5229 N.am      1 MOL1       -0.3857
     19 C           -2.8049    0.8950    0.4523 C.3       1 MOL1        0.0743
     20 C           -4.2526    0.6438   -0.0144 C.3       1 MOL1       -0.0452
     21 C           -4.9263    1.9993   -0.3471 C.3       1 MOL1       -0.0829
     22 C           -6.4652    1.9618   -0.1917 C.3       1 MOL1       -0.0736
     23 C           -7.0115    0.5563   -0.5053 C.3       1 MOL1       -0.0431
     24 N           -8.4759    0.5684   -0.4625 N.3       1 MOL1       -0.6103
     25 C           -6.4762   -0.4751    0.5148 C.3       1 MOL1       -0.0736
     26 C           -5.0747   -0.1059    1.0569 C.3       1 MOL1       -0.0829
     27 H            3.7697   -1.4593   -1.1390 H         1 MOL1        0.0653
     28 H           -0.1753   -1.9895    1.2856 H         1 MOL1        0.0678
     29  H           4.0774   -1.0394    1.8744 H         1 MOL1        0.2741
     30  H           5.1928   -1.7819    0.8199 H         1 MOL1        0.2741
     31  H           3.8161    1.0931   -1.3269 H         1 MOL1        0.0503
     32  H           6.4098   -0.3866   -0.0675 H         1 MOL1        0.0463
     33  H           5.7803   -0.4927   -1.9162 H         1 MOL1        0.0463
     34  H           7.7063    1.2063   -1.6233 H         1 MOL1        0.0460
     35  H           6.0311    2.0532   -2.1803 H         1 MOL1        0.0460
     36  H           7.2412    1.8655    0.8336 H         1 MOL1        0.0460
     37  H           7.2278    3.4286   -0.3471 H         1 MOL1        0.0460
     38  H           5.2772    3.4731    1.3742 H         1 MOL1        0.0460
     39  H           4.6412    3.3158   -0.4709 H         1 MOL1        0.0460
     40  H           3.3687    1.7701    1.1500 H         1 MOL1        0.0463
     41  H           5.0425    0.9052    1.6747 H         1 MOL1        0.0463
     42  H           2.7574   -3.3991   -0.2848 H         1 MOL1        0.0593
     43  H           2.0938   -2.6775   -2.0159 H         1 MOL1        0.0593
     44  H           0.5419   -4.5280   -1.7516 H         1 MOL1        0.0474
     45  H           0.6244   -4.4311    0.2165 H         1 MOL1        0.0474
     46  H          -1.5653   -3.3326   -0.3130 H         1 MOL1        0.0479
     47  H          -0.7815   -2.4010   -1.8646 H         1 MOL1        0.0479
     48  H          -2.2471   -0.9959    1.0169 H         1 MOL1        0.2039
     49  H          -2.8370    1.4032    1.5389 H         1 MOL1        0.0593
     50  H          -2.2899    1.6651   -0.3104 H         1 MOL1        0.0593
     51  H          -4.2282   -0.0373   -1.0027 H         1 MOL1        0.0501
     52  H          -4.6543    2.2969   -1.4779 H         1 MOL1        0.0463
     53  H          -4.4984    2.8567    0.3768 H         1 MOL1        0.0463
     54  H          -6.7620    2.2240    0.9416 H         1 MOL1        0.0474
     55  H          -6.9632    2.7711   -0.9247 H         1 MOL1        0.0474
     56  H          -6.6505    0.2571   -1.6104 H         1 MOL1        0.0589
     57  H          -8.8832    1.1891   -1.1721 H         1 MOL1        0.2740
     58  H          -8.8385    0.7631    0.4784 H         1 MOL1        0.2740
     59  H          -6.4295   -1.5511   -0.0159 H         1 MOL1        0.0474
     60  H          -7.2391   -0.5435    1.4390 H         1 MOL1        0.0474
     61  H          -5.1941    0.6228    2.0032 H         1 MOL1        0.0463
     62  H          -4.5211   -1.1106    1.4072 H         1 MOL1        0.0463
@<TRIPOS>BOND
     1      1      2 1 
     2      2      3 1 
     3      2      9 1 
     4      3      4 1 
     5      4      5 1 
     6      5      6 1 
     7      6      7 1 
     8      7      8 1 
     9      8      3 1 
    10      9     10 2 
    11      9     11 am
    12     11     12 1 
    13     12     13 1 
    14     13     14 1 
    15     14     15 1 
    16     15     11 1 
    17     15     16 1 
    18     16     17 2 
    19     16     18 am
    20     18     19 1 
    21     19     20 1 
    22     20     21 1 
    23     21     22 1 
    24     22     23 1 
    25     23     24 1 
    26     23     25 1 
    27     25     26 1 
    28     26     20 1 
    29      1     29 1 
    30      1     30 1 
    31      2     27 1 
    32      3     31 1 
    33      4     32 1 
    34      4     33 1 
    35      5     34 1 
    36      5     35 1 
    37      6     36 1 
    38      6     37 1 
    39      7     38 1 
    40      7     39 1 
    41      8     40 1 
    42      8     41 1 
    43     12     42 1 
    44     12     43 1 
    45     13     44 1 
    46     13     45 1 
    47     14     46 1 
    48     14     47 1 
    49     15     28 1 
    50     18     48 1 
    51     19     49 1 
    52     19     50 1 
    53     20     51 1 
    54     21     52 1 
    55     21     53 1 
    56     22     54 1 
    57     22     55 1 
    58     23     56 1 
    59     24     57 1 
    60     24     58 1 
    61     25     59 1 
    62     25     60 1 
    63     26     61 1 
    64     26     62 1 
@<TRIPOS>SUBSTRUCTURE
     1 MOL1         1 MOLECULE          1 A
