# Molecule written by the XED library from Cresset
@<TRIPOS>MOLECULE
CHEMBL358910
    51     53      1
SMALL
USER_CHARGES
@<TRIPOS>ATOM
      1 N            4.5394   -2.1469   -0.6798 N.am      1 MOL1       -0.4216
      2 C            3.6626   -3.0901   -0.2566 C.2       1 MOL1        0.1561
      3 N            4.0545   -4.2327    0.2360 N.2       1 MOL1       -0.5779
      4 C            2.1960   -2.8545   -0.3338 C.ar      1 MOL1       -0.0026
      5 C            1.3503   -3.7842    0.2523 C.ar      1 MOL1       -0.0581
      6 C           -0.0097   -3.6234    0.2144 C.ar      1 MOL1       -0.0721
      7 C           -0.5694   -2.5179   -0.4052 C.ar      1 MOL1       -0.0127
      8 C           -2.0421   -2.4117   -0.4394 C.2       1 MOL1       -0.0302
      9 C           -2.7805   -1.3056   -0.1607 C.2       1 MOL1       -0.0280
     10 C           -4.2182   -1.6399   -0.5156 C.3       1 MOL1       -0.0457
     11 C           -5.1608   -0.4692   -0.8028 C.3       1 MOL1       -0.0863
     12 C           -5.2353    0.4471    0.4237 C.3       1 MOL1       -0.0863
     13 C           -4.2480    1.6003    0.2386 C.3       1 MOL1       -0.0457
     14 C           -2.7826    1.2190    0.2548 C.2       1 MOL1       -0.0297
     15 C           -2.0678    2.3738    0.2350 C.2       1 MOL1       -0.0295
     16 C           -0.5979    2.5254    0.2751 C.ar      1 MOL1       -0.0155
     17 C            0.2125    1.9888    1.2640 C.ar      1 MOL1       -0.0717
     18 C            1.5645    2.2176    1.2578 C.ar      1 MOL1       -0.0595
     19 C            2.1558    3.0040    0.2772 C.ar      1 MOL1        0.0090
     20 C            1.3369    3.5499   -0.7033 C.ar      1 MOL1       -0.0595
     21 C           -0.0137    3.3171   -0.7016 C.ar      1 MOL1       -0.0717
     22 C            3.6229    3.2408    0.2990 C.2       1 MOL1        0.3133
     23 O            4.3116    2.4659    0.9581 O.2       1 MOL1       -0.4120
     24 N            4.1563    4.2750   -0.3794 N.am      1 MOL1       -0.3850
     25 C           -2.1308   -0.0862    0.3163 C.2       1 MOL1        0.1798
     26 O           -1.0293   -0.1989    0.8275 O.2       1 MOL1       -0.3948
     27 C            0.2698   -1.5911   -1.0075 C.ar      1 MOL1       -0.0721
     28 C            1.6308   -1.7553   -0.9685 C.ar      1 MOL1       -0.0581
     29  H           5.4060   -2.2970   -0.6448 H         1 MOL1        0.2753
     30  H           4.2526   -1.3762   -0.9893 H         1 MOL1        0.2753
     31  H           5.0509   -4.3155    0.2578 H         1 MOL1        0.2200
     32  H           1.7391   -4.5846    0.7084 H         1 MOL1        0.0910
     33  H          -0.6023   -4.3083    0.6381 H         1 MOL1        0.0910
     34  H          -2.5248   -3.2425   -0.6880 H         1 MOL1        0.0912
     35  H          -4.2528   -2.3030   -1.5162 H         1 MOL1        0.0492
     36  H          -4.6821   -2.2933    0.3782 H         1 MOL1        0.0492
     37  H          -6.2459   -0.9367   -1.0116 H         1 MOL1        0.0463
     38  H          -4.8007    0.1081   -1.7915 H         1 MOL1        0.0463
     39  H          -6.3354    0.9225    0.5010 H         1 MOL1        0.0463
     40  H          -4.9989   -0.1426    1.4424 H         1 MOL1        0.0463
     41  H          -4.5028    2.1685   -0.7875 H         1 MOL1        0.0492
     42  H          -4.4503    2.3562    1.1486 H         1 MOL1        0.0492
     43  H          -2.5768    3.2225    0.1501 H         1 MOL1        0.0912
     44  H          -0.1909    1.4326    1.9900 H         1 MOL1        0.0910
     45  H           2.1341    1.8165    1.9753 H         1 MOL1        0.0910
     46  H           1.7319    4.1206   -1.4215 H         1 MOL1        0.0910
     47  H          -0.5858    3.7264   -1.4122 H         1 MOL1        0.0910
     48  H           3.6436    4.8387   -0.8184 H         1 MOL1        0.2026
     49  H           5.0288    4.3952   -0.3775 H         1 MOL1        0.2026
     50  H          -0.1206   -0.7962   -1.4718 H         1 MOL1        0.0910
     51  H           2.2165   -1.0742   -1.4052 H         1 MOL1        0.0910
@<TRIPOS>BOND
     1      1      2 am
     2      2      3 2 
     3      2      4 1 
     4      4      5 ar
     5      5      6 ar
     6      6      7 ar
     7      7      8 1 
     8      7     27 ar
     9      8      9 2 
    10      9     10 1 
    11      9     25 1 
    12     10     11 1 
    13     11     12 1 
    14     12     13 1 
    15     13     14 1 
    16     14     15 2 
    17     14     25 1 
    18     15     16 1 
    19     16     17 ar
    20     17     18 ar
    21     18     19 ar
    22     19     20 ar
    23     19     22 1 
    24     20     21 ar
    25     21     16 ar
    26     22     23 2 
    27     22     24 am
    28     25     26 2 
    29     27     28 ar
    30     28      4 ar
    31      1     29 1 
    32      1     30 1 
    33      3     31 1 
    34      5     32 1 
    35      6     33 1 
    36      8     34 1 
    37     10     35 1 
    38     10     36 1 
    39     11     37 1 
    40     11     38 1 
    41     12     39 1 
    42     12     40 1 
    43     13     41 1 
    44     13     42 1 
    45     15     43 1 
    46     17     44 1 
    47     18     45 1 
    48     20     46 1 
    49     21     47 1 
    50     24     48 1 
    51     24     49 1 
    52     27     50 1 
    53     28     51 1 
@<TRIPOS>SUBSTRUCTURE
     1 MOL1         1 MOLECULE          1 A
