# Molecule written by the XED library from Cresset
@<TRIPOS>MOLECULE
CHEMBL332578
    43     44      1
SMALL
USER_CHARGES
@<TRIPOS>ATOM
      1 N            4.8720    2.5931   -0.0734 N.3       1 MOL1       -0.5866
      2 C            4.4967    1.2234   -0.4336 C.3       1 MOL1        0.0318
      3 C            5.5416    0.2414    0.1367 C.3       1 MOL1       -0.0545
      4 C            5.0703   -1.2306    0.0457 C.3       1 MOL1       -0.0512
      5 C            3.6915   -1.3514   -0.6315 C.3       1 MOL1        0.1525
      6 S            2.9389   -2.9613   -0.3140 S.3       1 MOL1       -0.1808
      7 C            1.2786   -2.2525   -0.2844 C.3       1 MOL1        0.0219
      8 C            1.4272   -0.8549    0.3456 C.3       1 MOL1        0.1723
      9 N            2.7517   -0.3656   -0.0745 N.am      1 MOL1       -0.3800
     10 C            3.1052    0.9241    0.0847 C.2       1 MOL1        0.2930
     11 O            2.3978    1.7864    0.5866 O.2       1 MOL1       -0.4176
     12 C            0.2941    0.0549   -0.0761 C.2       1 MOL1        0.3266
     13 O            0.4627    1.0080   -0.8242 O.2       1 MOL1       -0.4176
     14 N           -0.8783   -0.2972    0.4763 N.am      1 MOL1       -0.3858
     15 C           -2.0777    0.5085    0.2159 C.3       1 MOL1        0.0728
     16 C           -3.3458   -0.3604    0.1912 C.3       1 MOL1       -0.0551
     17 C           -4.5800    0.5435    0.0486 C.3       1 MOL1       -0.0359
     18 N           -5.8068   -0.2909    0.0540 N.2       1 MOL1       -0.5459
     19 C           -7.0093    0.2285   -0.0248 C.2       1 MOL1        0.1545
     20 N           -8.1017   -0.5620   -0.0119 N.am      1 MOL1       -0.4064
     21 N           -7.2330    1.5586   -0.1215 N.am      1 MOL1       -0.4064
     22 H            4.4860    1.1302   -1.6298 H         1 MOL1        0.0651
     23 H            3.7945   -1.1825   -1.8150 H         1 MOL1        0.0694
     24 H            1.4321   -0.9619    1.5409 H         1 MOL1        0.0696
     25  H           4.8388    2.7547    0.9402 H         1 MOL1        0.2741
     26  H           5.7718    2.8730   -0.4819 H         1 MOL1        0.2741
     27  H           6.5702    0.3862   -0.4654 H         1 MOL1        0.0476
     28  H           5.7336    0.5274    1.2868 H         1 MOL1        0.0476
     29  H           4.9776   -1.6857    1.1529 H         1 MOL1        0.0496
     30  H           5.8651   -1.8881   -0.5685 H         1 MOL1        0.0496
     31  H           0.8832   -2.1370   -1.4114 H         1 MOL1        0.0562
     32  H           0.5233   -2.9355    0.3505 H         1 MOL1        0.0562
     33  H          -0.9287   -0.9998    1.0057 H         1 MOL1        0.2039
     34  H          -1.9601    1.0618   -0.8424 H         1 MOL1        0.0590
     35  H          -2.1857    1.3330    1.0810 H         1 MOL1        0.0590
     36  H          -3.2942   -1.1249   -0.7323 H         1 MOL1        0.0487
     37  H          -3.4254   -0.9784    1.2167 H         1 MOL1        0.0487
     38  H          -4.5058    1.1533   -0.9824 H         1 MOL1        0.0590
     39  H          -4.6048    1.3060    0.9751 H         1 MOL1        0.0590
     40  H          -8.0082   -1.4349    0.0485 H         1 MOL1        0.2755
     41  H          -8.9074   -0.2119   -0.0633 H         1 MOL1        0.2755
     42  H          -6.5592    2.1223   -0.1421 H         1 MOL1        0.2755
     43  H          -8.0559    1.8672   -0.1652 H         1 MOL1        0.2755
@<TRIPOS>BOND
     1      1      2 1 
     2      2      3 1 
     3      3      4 1 
     4      4      5 1 
     5      5      6 1 
     6      6      7 1 
     7      7      8 1 
     8      8      9 1 
     9      8     12 1 
    10      9      5 1 
    11      9     10 am
    12     10      2 1 
    13     10     11 2 
    14     12     13 2 
    15     12     14 am
    16     14     15 1 
    17     15     16 1 
    18     16     17 1 
    19     17     18 1 
    20     18     19 2 
    21     19     20 am
    22     19     21 am
    23      1     25 1 
    24      1     26 1 
    25      2     22 1 
    26      3     27 1 
    27      3     28 1 
    28      4     29 1 
    29      4     30 1 
    30      5     23 1 
    31      7     31 1 
    32      7     32 1 
    33      8     24 1 
    34     14     33 1 
    35     15     34 1 
    36     15     35 1 
    37     16     36 1 
    38     16     37 1 
    39     17     38 1 
    40     17     39 1 
    41     20     40 1 
    42     20     41 1 
    43     21     42 1 
    44     21     43 1 
@<TRIPOS>SUBSTRUCTURE
     1 MOL1         1 MOLECULE          1 A
