# Molecule written by the XED library from Cresset
@<TRIPOS>MOLECULE
CHEMBL64654
    45     48      1
SMALL
USER_CHARGES
@<TRIPOS>ATOM
      1 N           -9.4084   -0.6737    0.0005 N.am      1 MOL1       -0.3980
      2 C           -8.2023   -0.0594    0.0012 C.2       1 MOL1        0.2325
      3 N           -8.0897    1.2470    0.0006 N.2       1 MOL1       -0.6271
      4 N           -7.1171   -0.8760    0.0024 N.am      1 MOL1       -0.1890
      5 C           -5.7679   -0.5110    0.0017 C.ar      1 MOL1        0.1662
      6 C           -5.3882    0.8227    0.0033 C.ar      1 MOL1       -0.0852
      7 C           -4.0626    1.1344    0.0008 C.ar      1 MOL1       -0.0521
      8 C           -3.1265    0.1169   -0.0037 C.ar      1 MOL1        0.0656
      9 N           -1.7529    0.4287   -0.0094 N.am      1 MOL1       -0.2287
     10 C           -0.6905   -0.4146   -0.0014 C.2       1 MOL1        0.3235
     11 O           -0.8054   -1.6386    0.0035 O.2       1 MOL1       -0.4147
     12 C            0.7045    0.1098    0.0002 C.ar      1 MOL1        0.0179
     13 C            1.7313   -0.7874    0.0004 C.ar      1 MOL1       -0.0377
     14 C            3.0821   -0.3772    0.0007 C.ar      1 MOL1       -0.0221
     15 C            4.1097   -1.3063    0.0006 C.ar      1 MOL1       -0.0629
     16 C            5.4249   -0.8779    0.0004 C.ar      1 MOL1       -0.0225
     17 C            6.4929   -1.8097    0.0002 C.ar      1 MOL1       -0.0792
     18 C            7.7679   -1.3756    0.0000 C.ar      1 MOL1       -0.0919
     19 C            8.0620    0.0077   -0.0001 C.ar      1 MOL1       -0.0877
     20 C            7.0741    0.9229    0.0002 C.ar      1 MOL1       -0.0837
     21 C            5.7202    0.5060    0.0005 C.ar      1 MOL1       -0.0189
     22 C            4.6948    1.4345    0.0007 C.ar      1 MOL1       -0.0832
     23 C            3.3803    1.0048    0.0009 C.ar      1 MOL1       -0.0141
     24 C            2.3136    1.9300    0.0013 C.ar      1 MOL1       -0.0880
     25 C            1.0299    1.5048    0.0011 C.ar      1 MOL1        0.0794
     26 O            0.0450    2.4395    0.0019 O.3       1 MOL1       -0.3798
     27 C           -3.5832   -1.1847   -0.0043 C.ar      1 MOL1        0.0068
     28 N           -4.8868   -1.5344   -0.0013 N.ar      1 MOL1       -0.3538
     29  H         -10.1516   -0.2026   -0.0001 H         1 MOL1        0.2756
     30  H          -9.4575   -1.5523    0.0007 H         1 MOL1        0.2756
     31  H          -8.9788    1.7049   -0.0003 H         1 MOL1        0.2205
     32  H          -7.2737   -1.7418    0.0029 H         1 MOL1        0.2058
     33  H          -6.0787    1.5462    0.0059 H         1 MOL1        0.0928
     34  H          -3.7691    2.0905    0.0016 H         1 MOL1        0.0919
     35  H          -1.5712    1.2847   -0.0212 H         1 MOL1        0.2056
     36  H           1.5238   -1.7655    0.0000 H         1 MOL1        0.0914
     37  H           3.9013   -2.2844    0.0005 H         1 MOL1        0.0914
     38  H           6.2997   -2.7909    0.0002 H         1 MOL1        0.0910
     39  H           8.5159   -2.0394   -0.0003 H         1 MOL1        0.0906
     40  H           9.0154    0.3098   -0.0004 H         1 MOL1        0.0906
     41  H           7.2964    1.8980    0.0002 H         1 MOL1        0.0910
     42  H           4.9029    2.4127    0.0009 H         1 MOL1        0.0914
     43  H           2.5095    2.9106    0.0018 H         1 MOL1        0.0928
     44  H           0.4195    3.3735    0.0017 H         1 MOL1        0.3295
     45  H          -2.9098   -1.9214   -0.0076 H         1 MOL1        0.1007
@<TRIPOS>BOND
     1      1      2 am
     2      2      3 2 
     3      2      4 am
     4      4      5 1 
     5      5      6 ar
     6      6      7 ar
     7      7      8 ar
     8      8      9 1 
     9      8     27 ar
    10      9     10 am
    11     10     11 2 
    12     10     12 1 
    13     12     13 ar
    14     13     14 ar
    15     14     15 ar
    16     15     16 ar
    17     16     17 ar
    18     17     18 ar
    19     18     19 ar
    20     19     20 ar
    21     20     21 ar
    22     21     16 ar
    23     21     22 ar
    24     22     23 ar
    25     23     14 ar
    26     23     24 ar
    27     24     25 ar
    28     25     12 ar
    29     25     26 1 
    30     27     28 ar
    31     28      5 ar
    32      1     29 1 
    33      1     30 1 
    34      3     31 1 
    35      4     32 1 
    36      6     33 1 
    37      7     34 1 
    38      9     35 1 
    39     13     36 1 
    40     15     37 1 
    41     17     38 1 
    42     18     39 1 
    43     19     40 1 
    44     20     41 1 
    45     22     42 1 
    46     24     43 1 
    47     26     44 1 
    48     27     45 1 
@<TRIPOS>SUBSTRUCTURE
     1 MOL1         1 MOLECULE          1 A
