# Molecule written by the XED library from Cresset
@<TRIPOS>MOLECULE
CHEMBL182997
    54     55      1
SMALL
USER_CHARGES
@<TRIPOS>ATOM
      1 C           -4.1764    3.7465   -0.4754 C.3       1 MOL1       -0.1122
      2 C           -2.9172    2.8637   -0.5222 C.3       1 MOL1       -0.0203
      3 C           -2.2984    3.0273   -1.9218 C.3       1 MOL1       -0.1122
      4 C           -1.9110    3.3868    0.5159 C.3       1 MOL1       -0.1122
      5 C           -3.3174    1.3849   -0.2587 C.3       1 MOL1        0.0740
      6 O           -3.9586    1.2300    1.0235 O.3       1 MOL1       -0.4291
      7 C           -2.2103    0.3619   -0.4888 C.2       1 MOL1        0.3000
      8 O           -1.1204    0.6894   -0.9276 O.2       1 MOL1       -0.4159
      9 N           -2.5591   -0.9200   -0.2451 N.am      1 MOL1       -0.3901
     10 C           -3.8574   -1.3259    0.3302 C.3       1 MOL1        0.0725
     11 C           -3.9899   -2.7640   -0.1847 C.3       1 MOL1       -0.0686
     12 C           -2.5446   -3.2597   -0.2431 C.3       1 MOL1       -0.0562
     13 C           -1.7122   -2.0462   -0.6931 C.3       1 MOL1        0.1604
     14 C           -0.2905   -2.2640   -0.1986 C.2       1 MOL1        0.3241
     15 O            0.2904   -3.3151   -0.4308 O.2       1 MOL1       -0.4176
     16 N            0.2335   -1.2388    0.5004 N.am      1 MOL1       -0.3832
     17 C            1.5335   -1.4015    1.1830 C.3       1 MOL1        0.1154
     18 C            2.7681   -0.6733    0.6350 C.ar      1 MOL1       -0.0323
     19 C            3.9339   -1.4088    0.5558 C.ar      1 MOL1       -0.0576
     20 C            5.1136   -0.8384    0.1308 C.ar      1 MOL1        0.0436
     21 Cl           6.5813   -1.7757    0.0730 Cl        1 MOL1       -0.1082
     22 C            5.1360    0.4839   -0.2410 C.ar      1 MOL1       -0.0637
     23 C            3.9839    1.2276   -0.1732 C.ar      1 MOL1       -0.0779
     24 C            2.8047    0.6641    0.2700 C.ar      1 MOL1       -0.0513
     25 C            1.5677    1.5452    0.3299 C.3       1 MOL1       -0.0191
     26 N            1.8337    2.9860    0.2697 N.3       1 MOL1       -0.6086
     27 H           -4.1319    1.1217   -1.0951 H         1 MOL1        0.0726
     28 H           -1.6941   -2.0118   -1.8942 H         1 MOL1        0.0678
     29  H          -4.6669    3.7078    0.6200 H         1 MOL1        0.0438
     30  H          -3.8846    4.8826   -0.7274 H         1 MOL1        0.0438
     31  H          -4.9737    3.3684   -1.2901 H         1 MOL1        0.0438
     32  H          -2.0928    4.1870   -2.1445 H         1 MOL1        0.0438
     33  H          -3.0473    2.5829   -2.7446 H         1 MOL1        0.0438
     34  H          -1.2423    2.4686   -2.0075 H         1 MOL1        0.0438
     35  H          -0.8928    2.7503    0.4732 H         1 MOL1        0.0438
     36  H          -1.6675    4.5309    0.2516 H         1 MOL1        0.0438
     37  H          -2.3778    3.3367    1.6205 H         1 MOL1        0.0438
     38  H          -4.8364    1.7212    1.0726 H         1 MOL1        0.3291
     39  H          -4.7892   -0.6706   -0.0466 H         1 MOL1        0.0593
     40  H          -3.8076   -1.3207    1.5304 H         1 MOL1        0.0593
     41  H          -4.6619   -3.4455    0.5389 H         1 MOL1        0.0474
     42  H          -4.4442   -2.7726   -1.2941 H         1 MOL1        0.0474
     43  H          -2.1997   -3.5743    0.8628 H         1 MOL1        0.0479
     44  H          -2.4053   -4.1843   -0.9955 H         1 MOL1        0.0479
     45  H          -0.2174   -0.4940    0.6077 H         1 MOL1        0.2040
     46  H           1.3902   -1.0416    2.3214 H         1 MOL1        0.0620
     47  H           1.7406   -2.5844    1.2070 H         1 MOL1        0.0620
     48  H           3.9288   -2.3721    0.8250 H         1 MOL1        0.0941
     49  H           5.9916    0.9017   -0.5528 H         1 MOL1        0.0939
     50  H           4.0031    2.1893   -0.4421 H         1 MOL1        0.0908
     51  H           0.8946    1.2621   -0.6182 H         1 MOL1        0.0594
     52  H           0.9829    1.3259    1.3535 H         1 MOL1        0.0594
     53  H           2.3632    3.3136    1.0858 H         1 MOL1        0.2740
     54  H           2.2739    3.2599   -0.6162 H         1 MOL1        0.2740
@<TRIPOS>BOND
     1      1      2 1 
     2      2      3 1 
     3      2      4 1 
     4      2      5 1 
     5      5      6 1 
     6      5      7 1 
     7      7      8 2 
     8      7      9 am
     9      9     10 1 
    10     10     11 1 
    11     11     12 1 
    12     12     13 1 
    13     13      9 1 
    14     13     14 1 
    15     14     15 2 
    16     14     16 am
    17     16     17 1 
    18     17     18 1 
    19     18     19 ar
    20     19     20 ar
    21     20     21 1 
    22     20     22 ar
    23     22     23 ar
    24     23     24 ar
    25     24     18 ar
    26     24     25 1 
    27     25     26 1 
    28      1     29 1 
    29      1     30 1 
    30      1     31 1 
    31      3     32 1 
    32      3     33 1 
    33      3     34 1 
    34      4     35 1 
    35      4     36 1 
    36      4     37 1 
    37      5     27 1 
    38      6     38 1 
    39     10     39 1 
    40     10     40 1 
    41     11     41 1 
    42     11     42 1 
    43     12     43 1 
    44     12     44 1 
    45     13     28 1 
    46     16     45 1 
    47     17     46 1 
    48     17     47 1 
    49     19     48 1 
    50     22     49 1 
    51     23     50 1 
    52     25     51 1 
    53     25     52 1 
    54     26     53 1 
    55     26     54 1 
@<TRIPOS>SUBSTRUCTURE
     1 MOL1         1 MOLECULE          1 A
