# Molecule written by the XED library from Cresset
@<TRIPOS>MOLECULE
CHEMBL331437
    52     54      1
SMALL
USER_CHARGES
@<TRIPOS>ATOM
      1 N            5.3005    3.8138   -0.0478 N.am      1 MOL1       -0.4205
      2 C            5.1263    2.4742    0.0661 C.2       1 MOL1        0.1555
      3 N            5.9746    1.7155    0.7029 N.2       1 MOL1       -0.5838
      4 C            3.9381    1.8075   -0.5362 C.ar      1 MOL1       -0.0056
      5 C            3.0755    2.4432   -1.4193 C.ar      1 MOL1       -0.0494
      6 C            2.0011    1.7719   -1.9557 C.ar      1 MOL1       -0.0878
      7 C            1.7644    0.4606   -1.6210 C.ar      1 MOL1       -0.0557
      8 C            2.6001   -0.1941   -0.7287 C.ar      1 MOL1       -0.0233
      9 C            2.4496   -1.6115   -0.3289 C.2       1 MOL1       -0.0277
     10 C            1.3000   -2.2646   -0.0173 C.2       1 MOL1       -0.0363
     11 C            1.6737   -3.7066    0.2632 C.3       1 MOL1       -0.0458
     12 C            0.5219   -4.6744    0.5353 C.3       1 MOL1       -0.0863
     13 C           -0.4337   -4.6497   -0.6649 C.3       1 MOL1       -0.0863
     14 C           -1.6024   -3.7158   -0.3463 C.3       1 MOL1       -0.0458
     15 C           -1.2537   -2.2815    0.0029 C.2       1 MOL1       -0.0363
     16 C           -2.4255   -1.6563    0.2889 C.2       1 MOL1       -0.0277
     17 C           -2.6203   -0.2547    0.7221 C.ar      1 MOL1       -0.0233
     18 C           -1.8469    0.3844    1.6804 C.ar      1 MOL1       -0.0557
     19 C           -2.1189    1.6834    2.0377 C.ar      1 MOL1       -0.0878
     20 C           -3.1725    2.3538    1.4613 C.ar      1 MOL1       -0.0494
     21 C           -3.9758    1.7302    0.5181 C.ar      1 MOL1       -0.0056
     22 C           -3.6858    0.4265    0.1603 C.ar      1 MOL1       -0.0388
     23 C           -5.1259    2.4528   -0.0963 C.2       1 MOL1        0.1555
     24 N           -6.2598    1.8422   -0.3069 N.2       1 MOL1       -0.5838
     25 N           -4.9773    3.7532   -0.4289 N.am      1 MOL1       -0.4205
     26 C            0.0192   -1.5667    0.0288 C.2       1 MOL1        0.1763
     27 O            0.0272   -0.3495    0.0937 O.2       1 MOL1       -0.3992
     28 C            3.6850    0.4887   -0.2085 C.ar      1 MOL1       -0.0388
     29  H           6.0119    4.2017    0.2960 H         1 MOL1        0.2753
     30  H           4.7033    4.3085   -0.4610 H         1 MOL1        0.2753
     31  H           6.7425    2.2351    1.0776 H         1 MOL1        0.2200
     32  H           3.2350    3.3952   -1.6763 H         1 MOL1        0.0910
     33  H           1.3903    2.2401   -2.5940 H         1 MOL1        0.0906
     34  H           0.9844   -0.0226   -2.0187 H         1 MOL1        0.0910
     35  H           3.2956   -2.1287   -0.2778 H         1 MOL1        0.0912
     36  H           2.2718   -4.1425   -0.6823 H         1 MOL1        0.0492
     37  H           2.3987   -3.7329    1.2198 H         1 MOL1        0.0492
     38  H           0.9965   -5.7712    0.6538 H         1 MOL1        0.0463
     39  H          -0.0259   -4.3755    1.5606 H         1 MOL1        0.0463
     40  H          -0.8941   -5.7447   -0.8362 H         1 MOL1        0.0463
     41  H           0.1086   -4.2907   -1.6741 H         1 MOL1        0.0463
     42  H          -2.2000   -4.2034    0.5741 H         1 MOL1        0.0492
     43  H          -2.3280   -3.7187   -1.3028 H         1 MOL1        0.0492
     44  H          -3.2598   -2.1856    0.1879 H         1 MOL1        0.0912
     45  H          -1.0842   -0.1002    2.1085 H         1 MOL1        0.0910
     46  H          -1.5497    2.1418    2.7203 H         1 MOL1        0.0906
     47  H          -3.3650    3.2976    1.7297 H         1 MOL1        0.0910
     48  H          -4.2534   -0.0365   -0.5201 H         1 MOL1        0.0914
     49  H          -6.2538    0.8915    0.0030 H         1 MOL1        0.2200
     50  H          -4.2118    4.1659   -0.2921 H         1 MOL1        0.2753
     51  H          -5.6510    4.1907   -0.7887 H         1 MOL1        0.2753
     52  H           4.3021    0.0161    0.4209 H         1 MOL1        0.0914
@<TRIPOS>BOND
     1      1      2 am
     2      2      3 2 
     3      2      4 1 
     4      4      5 ar
     5      5      6 ar
     6      6      7 ar
     7      7      8 ar
     8      8      9 1 
     9      8     28 ar
    10      9     10 2 
    11     10     11 1 
    12     10     26 1 
    13     11     12 1 
    14     12     13 1 
    15     13     14 1 
    16     14     15 1 
    17     15     16 2 
    18     15     26 1 
    19     16     17 1 
    20     17     18 ar
    21     18     19 ar
    22     19     20 ar
    23     20     21 ar
    24     21     22 ar
    25     21     23 1 
    26     22     17 ar
    27     23     24 2 
    28     23     25 am
    29     26     27 2 
    30     28      4 ar
    31      1     29 1 
    32      1     30 1 
    33      3     31 1 
    34      5     32 1 
    35      6     33 1 
    36      7     34 1 
    37      9     35 1 
    38     11     36 1 
    39     11     37 1 
    40     12     38 1 
    41     12     39 1 
    42     13     40 1 
    43     13     41 1 
    44     14     42 1 
    45     14     43 1 
    46     16     44 1 
    47     18     45 1 
    48     19     46 1 
    49     20     47 1 
    50     22     48 1 
    51     24     49 1 
    52     25     50 1 
    53     25     51 1 
    54     28     52 1 
@<TRIPOS>SUBSTRUCTURE
     1 MOL1         1 MOLECULE          1 A
