# Molecule written by the XED library from Cresset
@<TRIPOS>MOLECULE
CHEMBL422321
    55     57      1
SMALL
USER_CHARGES
@<TRIPOS>ATOM
      1 N           -4.7263    4.4483    0.1016 N.am      1 MOL1       -0.4216
      2 C           -5.3975    3.2703    0.1194 C.2       1 MOL1        0.1561
      3 N           -6.6819    3.2081    0.3384 N.2       1 MOL1       -0.5779
      4 C           -4.6836    1.9846   -0.1104 C.ar      1 MOL1       -0.0026
      5 C           -3.3457    1.9200   -0.4762 C.ar      1 MOL1       -0.0581
      6 C           -2.7321    0.7115   -0.6776 C.ar      1 MOL1       -0.0722
      7 C           -3.4284   -0.4775   -0.5131 C.ar      1 MOL1       -0.0127
      8 C           -2.8019   -1.7942   -0.7604 C.2       1 MOL1       -0.0303
      9 C           -1.5279   -2.1351   -0.4431 C.2       1 MOL1       -0.0280
     10 C           -1.0523   -3.4267   -1.0716 C.3       1 MOL1       -0.0457
     11 C           -1.0033   -4.5344   -0.0045 C.3       1 MOL1       -0.0868
     12 C            0.4132   -4.7240    0.5680 C.3       1 MOL1       -0.0911
     13 C            0.9187   -3.4806    1.3282 C.3       1 MOL1       -0.0868
     14 C            1.5769   -2.4352    0.3999 C.3       1 MOL1       -0.0457
     15 C            0.7264   -1.1885    0.2273 C.2       1 MOL1       -0.0280
     16 C            1.2197    0.0703    0.1757 C.2       1 MOL1       -0.0303
     17 C            2.6443    0.4519    0.0710 C.ar      1 MOL1       -0.0127
     18 C            3.6173   -0.3243   -0.5423 C.ar      1 MOL1       -0.0722
     19 C            4.9109    0.1218   -0.6278 C.ar      1 MOL1       -0.0581
     20 C            5.2788    1.3563   -0.1097 C.ar      1 MOL1       -0.0026
     21 C            4.3027    2.1281    0.5048 C.ar      1 MOL1       -0.0581
     22 C            3.0085    1.6856    0.5879 C.ar      1 MOL1       -0.0722
     23 C            6.6891    1.8284   -0.2149 C.2       1 MOL1        0.1561
     24 N            6.9631    3.0934   -0.3849 N.2       1 MOL1       -0.5779
     25 N            7.6870    0.9207   -0.1363 N.am      1 MOL1       -0.4216
     26 C           -0.7175   -1.2223    0.3485 C.2       1 MOL1        0.1799
     27 O           -1.1899   -0.4259    1.1490 O.2       1 MOL1       -0.3945
     28 C           -4.7682   -0.4169   -0.1625 C.ar      1 MOL1       -0.0722
     29 C           -5.3808    0.7938    0.0386 C.ar      1 MOL1       -0.0581
     30  H          -5.1548    5.2069    0.2269 H         1 MOL1        0.2753
     31  H          -3.8581    4.4676   -0.0316 H         1 MOL1        0.2753
     32  H          -7.0866    4.1112    0.4827 H         1 MOL1        0.2200
     33  H          -2.8188    2.7596   -0.5983 H         1 MOL1        0.0910
     34  H          -1.7687    0.6858   -0.9446 H         1 MOL1        0.0910
     35  H          -3.3600   -2.4642   -1.2301 H         1 MOL1        0.0912
     36  H           0.0183   -3.2740   -1.5840 H         1 MOL1        0.0492
     37  H          -1.7941   -3.7641   -1.9536 H         1 MOL1        0.0492
     38  H          -1.7704   -4.2689    0.8795 H         1 MOL1        0.0463
     39  H          -1.3279   -5.5792   -0.4990 H         1 MOL1        0.0463
     40  H           1.1725   -5.0394   -0.3061 H         1 MOL1        0.0460
     41  H           0.3474   -5.6355    1.3467 H         1 MOL1        0.0460
     42  H           1.7348   -3.8517    2.1283 H         1 MOL1        0.0463
     43  H           0.0082   -2.9753    1.9243 H         1 MOL1        0.0463
     44  H           2.5736   -2.0916    0.9737 H         1 MOL1        0.0492
     45  H           1.9221   -2.9003   -0.6503 H         1 MOL1        0.0492
     46  H           0.5602    0.8091    0.2076 H         1 MOL1        0.0912
     47  H           3.3748   -1.2120   -0.9306 H         1 MOL1        0.0910
     48  H           5.5989   -0.4498   -1.0747 H         1 MOL1        0.0910
     49  H           4.5405    3.0173    0.8941 H         1 MOL1        0.0910
     50  H           2.3176    2.2596    1.0276 H         1 MOL1        0.0910
     51  H           6.1470    3.6659   -0.4577 H         1 MOL1        0.2200
     52  H           7.5089    0.0674   -0.0133 H         1 MOL1        0.2753
     53  H           8.5232    1.1857   -0.2046 H         1 MOL1        0.2753
     54  H          -5.2923   -1.2618   -0.0555 H         1 MOL1        0.0910
     55  H          -6.3471    0.8189    0.2950 H         1 MOL1        0.0910
@<TRIPOS>BOND
     1      1      2 am
     2      2      3 2 
     3      2      4 1 
     4      4      5 ar
     5      5      6 ar
     6      6      7 ar
     7      7      8 1 
     8      7     28 ar
     9      8      9 2 
    10      9     10 1 
    11      9     26 1 
    12     10     11 1 
    13     11     12 1 
    14     12     13 1 
    15     13     14 1 
    16     14     15 1 
    17     15     16 2 
    18     15     26 1 
    19     16     17 1 
    20     17     18 ar
    21     18     19 ar
    22     19     20 ar
    23     20     21 ar
    24     20     23 1 
    25     21     22 ar
    26     22     17 ar
    27     23     24 2 
    28     23     25 am
    29     26     27 2 
    30     28     29 ar
    31     29      4 ar
    32      1     30 1 
    33      1     31 1 
    34      3     32 1 
    35      5     33 1 
    36      6     34 1 
    37      8     35 1 
    38     10     36 1 
    39     10     37 1 
    40     11     38 1 
    41     11     39 1 
    42     12     40 1 
    43     12     41 1 
    44     13     42 1 
    45     13     43 1 
    46     14     44 1 
    47     14     45 1 
    48     16     46 1 
    49     18     47 1 
    50     19     48 1 
    51     21     49 1 
    52     22     50 1 
    53     24     51 1 
    54     25     52 1 
    55     25     53 1 
    56     28     54 1 
    57     29     55 1 
@<TRIPOS>SUBSTRUCTURE
     1 MOL1         1 MOLECULE          1 A
