# Molecule written by the XED library from Cresset
@<TRIPOS>MOLECULE
CHEMBL150309
    55     57      1
SMALL
USER_CHARGES
@<TRIPOS>ATOM
      1 N            8.8633   -1.2582   -0.0547 N.am      1 MOL1       -0.4216
      2 C            8.0648   -0.1662    0.0311 C.2       1 MOL1        0.1561
      3 N            8.5474    1.0442    0.0911 N.2       1 MOL1       -0.5779
      4 C            6.5845   -0.3118    0.0668 C.ar      1 MOL1       -0.0026
      5 C            5.9356   -1.5088   -0.2013 C.ar      1 MOL1       -0.0581
      6 C            4.5682   -1.5889   -0.1580 C.ar      1 MOL1       -0.0722
      7 C            3.7865   -0.4837    0.1470 C.ar      1 MOL1       -0.0127
      8 C            2.3222   -0.7323    0.1709 C.2       1 MOL1       -0.0303
      9 C            1.3100    0.1534   -0.0301 C.2       1 MOL1       -0.0280
     10 C            1.7002    1.5702   -0.4139 C.3       1 MOL1       -0.0457
     11 C            0.6378    2.4466   -1.0886 C.3       1 MOL1       -0.0868
     12 C           -0.0373    3.3187   -0.0132 C.3       1 MOL1       -0.0911
     13 C           -0.7026    2.4457    1.0675 C.3       1 MOL1       -0.0868
     14 C           -1.7451    1.5441    0.3951 C.3       1 MOL1       -0.0457
     15 C           -1.3154    0.1351    0.0214 C.2       1 MOL1       -0.0280
     16 C           -2.3159   -0.7659   -0.1642 C.2       1 MOL1       -0.0303
     17 C           -3.7791   -0.5216   -0.1457 C.ar      1 MOL1       -0.0127
     18 C           -4.4233    0.6156   -0.6166 C.ar      1 MOL1       -0.0722
     19 C           -5.7897    0.7191   -0.5683 C.ar      1 MOL1       -0.0581
     20 C           -6.5687   -0.3116   -0.0627 C.ar      1 MOL1       -0.0026
     21 C           -5.9268   -1.4510    0.4002 C.ar      1 MOL1       -0.0581
     22 C           -4.5608   -1.5528    0.3539 C.ar      1 MOL1       -0.0722
     23 C           -8.0531   -0.1829   -0.0241 C.2       1 MOL1        0.1561
     24 N           -8.8224   -1.2184   -0.2246 N.2       1 MOL1       -0.5779
     25 N           -8.5947    1.0314    0.2165 N.am      1 MOL1       -0.4216
     26 C            0.0017   -0.4997   -0.0027 C.2       1 MOL1        0.1799
     27 O            0.0094   -1.7245    0.0002 O.2       1 MOL1       -0.3945
     28 C            4.4412    0.7103    0.4265 C.ar      1 MOL1       -0.0722
     29 C            5.8089    0.7931    0.3811 C.ar      1 MOL1       -0.0581
     30  H           9.7377   -1.1686   -0.0931 H         1 MOL1        0.2753
     31  H           8.5167   -2.0657   -0.0678 H         1 MOL1        0.2753
     32  H           9.5470    1.0562    0.0614 H         1 MOL1        0.2200
     33  H           6.4651   -2.3243   -0.4301 H         1 MOL1        0.0910
     34  H           4.1234   -2.4633   -0.3518 H         1 MOL1        0.0910
     35  H           2.0573   -1.6711    0.3373 H         1 MOL1        0.0912
     36  H           2.6249    1.5003   -1.1757 H         1 MOL1        0.0492
     37  H           2.0585    2.1406    0.5778 H         1 MOL1        0.0492
     38  H           1.1658    3.1946   -1.8654 H         1 MOL1        0.0463
     39  H          -0.1345    1.7559   -1.6929 H         1 MOL1        0.0463
     40  H           0.7741    4.0366    0.5034 H         1 MOL1        0.0460
     41  H          -0.8577    4.0224   -0.5350 H         1 MOL1        0.0460
     42  H          -1.2480    3.1911    1.8347 H         1 MOL1        0.0463
     43  H           0.0794    1.7747    1.6815 H         1 MOL1        0.0463
     44  H          -2.6716    1.4536    1.1528 H         1 MOL1        0.0492
     45  H          -2.1191    2.1085   -0.5935 H         1 MOL1        0.0492
     46  H          -2.0441   -1.7059   -0.3100 H         1 MOL1        0.0912
     47  H          -3.8949    1.3668   -1.0017 H         1 MOL1        0.0910
     48  H          -6.2323    1.5490   -0.9080 H         1 MOL1        0.0910
     49  H          -6.4607   -2.2082    0.7749 H         1 MOL1        0.0910
     50  H          -4.1195   -2.3856    0.6878 H         1 MOL1        0.0910
     51  H          -8.3108   -2.0543   -0.4211 H         1 MOL1        0.2200
     52  H          -8.0807    1.7329    0.3546 H         1 MOL1        0.2753
     53  H          -9.4699    1.1216    0.2379 H         1 MOL1        0.2753
     54  H           3.9203    1.5231    0.6673 H         1 MOL1        0.0910
     55  H           6.2550    1.6654    0.5814 H         1 MOL1        0.0910
@<TRIPOS>BOND
     1      1      2 am
     2      2      3 2 
     3      2      4 1 
     4      4      5 ar
     5      5      6 ar
     6      6      7 ar
     7      7      8 1 
     8      7     28 ar
     9      8      9 2 
    10      9     10 1 
    11      9     26 1 
    12     10     11 1 
    13     11     12 1 
    14     12     13 1 
    15     13     14 1 
    16     14     15 1 
    17     15     16 2 
    18     15     26 1 
    19     16     17 1 
    20     17     18 ar
    21     18     19 ar
    22     19     20 ar
    23     20     21 ar
    24     20     23 1 
    25     21     22 ar
    26     22     17 ar
    27     23     24 2 
    28     23     25 am
    29     26     27 2 
    30     28     29 ar
    31     29      4 ar
    32      1     30 1 
    33      1     31 1 
    34      3     32 1 
    35      5     33 1 
    36      6     34 1 
    37      8     35 1 
    38     10     36 1 
    39     10     37 1 
    40     11     38 1 
    41     11     39 1 
    42     12     40 1 
    43     12     41 1 
    44     13     42 1 
    45     13     43 1 
    46     14     44 1 
    47     14     45 1 
    48     16     46 1 
    49     18     47 1 
    50     19     48 1 
    51     21     49 1 
    52     22     50 1 
    53     24     51 1 
    54     25     52 1 
    55     25     53 1 
    56     28     54 1 
    57     29     55 1 
@<TRIPOS>SUBSTRUCTURE
     1 MOL1         1 MOLECULE          1 A
