# Molecule written by the XED library from Cresset
@<TRIPOS>MOLECULE
CHEMBL3964754
    51     54      1
SMALL
USER_CHARGES
@<TRIPOS>ATOM
      1 N           -4.7119   -3.2070    0.1090 N.3       1 MOL1       -0.6086
      2 C           -4.0877   -1.9141    0.4126 C.3       1 MOL1       -0.0191
      3 C           -5.0190   -0.7128    0.3054 C.ar      1 MOL1       -0.0515
      4 C           -6.3615   -0.8923    0.0536 C.ar      1 MOL1       -0.0779
      5 C           -7.2040    0.1858   -0.0671 C.ar      1 MOL1       -0.0637
      6 C           -6.7073    1.4615    0.0601 C.ar      1 MOL1        0.0436
      7 Cl          -7.7660    2.8281   -0.1282 Cl        1 MOL1       -0.1082
      8 C           -5.3699    1.6504    0.3260 C.ar      1 MOL1       -0.0578
      9 C           -4.5225    0.5695    0.4441 C.ar      1 MOL1       -0.0376
     10 C           -3.0493    0.8326    0.7203 C.3       1 MOL1        0.0066
     11 N           -2.1845    0.1529   -0.2759 N.2       1 MOL1       -0.4054
     12 C           -0.9050    0.3078   -0.2655 C.2       1 MOL1        0.2557
     13 O           -0.2364    1.1088    0.6020 O.3       1 MOL1       -0.3363
     14 C            0.0139   -0.3774   -1.2521 C.3       1 MOL1        0.1469
     15 C           -0.0876   -1.9154   -1.2482 C.3       1 MOL1       -0.0116
     16 C            1.3877   -2.2448   -0.9583 C.3       1 MOL1        0.0602
     17 N            1.3513   -0.7852   -0.8089 N.am      1 MOL1       -0.3938
     18 C            2.3408    0.0275   -0.3922 C.2       1 MOL1        0.2991
     19 O            2.1690    1.1857   -0.0362 O.2       1 MOL1       -0.4193
     20 C            3.7219   -0.6065   -0.4887 C.3       1 MOL1        0.0552
     21 C            4.0457   -1.7017    0.5801 C.3       1 MOL1       -0.0232
     22 N            5.4186   -1.3636    0.9947 N.pl3     1 MOL1       -0.3100
     23 C            5.7947   -0.1582    0.4374 C.ar      1 MOL1        0.0407
     24 C            6.9925    0.4725    0.7037 C.ar      1 MOL1       -0.1166
     25 C            7.2234    1.6907    0.1047 C.ar      1 MOL1       -0.0884
     26 C            6.2834    2.2538   -0.7397 C.ar      1 MOL1       -0.1270
     27 C            5.0955    1.6030   -1.0082 C.ar      1 MOL1       -0.0832
     28 C            4.8698    0.3894   -0.4080 C.ar      1 MOL1       -0.0729
     29 H            0.0077    0.0835   -2.3609 H         1 MOL1        0.0675
     30  H          -5.5549   -3.3715    0.6698 H         1 MOL1        0.2740
     31  H          -4.0468   -3.9872    0.1738 H         1 MOL1        0.2740
     32  H          -3.6337   -1.9467    1.5221 H         1 MOL1        0.0594
     33  H          -3.1890   -1.7443   -0.3653 H         1 MOL1        0.0594
     34  H          -6.7249   -1.8182   -0.0456 H         1 MOL1        0.0908
     35  H          -8.1746    0.0438   -0.2556 H         1 MOL1        0.0939
     36  H          -5.0113    2.5784    0.4241 H         1 MOL1        0.0941
     37  H          -2.8400    2.0141    0.6957 H         1 MOL1        0.0620
     38  H          -2.7785    0.4007    1.8074 H         1 MOL1        0.0620
     39  H          -0.8607    1.5471    1.2572 H         1 MOL1        0.3296
     40  H          -0.4447   -2.3581   -2.3038 H         1 MOL1        0.0522
     41  H          -0.7919   -2.2897   -0.3518 H         1 MOL1        0.0522
     42  H           1.9898   -2.6371   -1.9181 H         1 MOL1        0.0597
     43  H           1.5726   -2.8373    0.0679 H         1 MOL1        0.0597
     44  H           3.8202   -1.1098   -1.5769 H         1 MOL1        0.0594
     45  H           3.3117   -1.6065    1.5232 H         1 MOL1        0.0575
     46  H           3.9920   -2.8119    0.1218 H         1 MOL1        0.0575
     47  H           6.0119   -1.9904    1.1738 H         1 MOL1        0.2758
     48  H           7.6659    0.0614    1.3185 H         1 MOL1        0.0917
     49  H           8.0781    2.1754    0.2864 H         1 MOL1        0.0906
     50  H           6.4655    3.1418   -1.1626 H         1 MOL1        0.0906
     51  H           4.4176    2.0024   -1.6265 H         1 MOL1        0.0908
@<TRIPOS>BOND
     1      1      2 1 
     2      2      3 1 
     3      3      4 ar
     4      4      5 ar
     5      5      6 ar
     6      6      7 1 
     7      6      8 ar
     8      8      9 ar
     9      9      3 ar
    10      9     10 1 
    11     10     11 1 
    12     11     12 2 
    13     12     13 1 
    14     12     14 1 
    15     14     15 1 
    16     15     16 1 
    17     16     17 1 
    18     17     14 1 
    19     17     18 am
    20     18     19 2 
    21     18     20 1 
    22     20     21 1 
    23     21     22 1 
    24     22     23 1 
    25     23     24 ar
    26     24     25 ar
    27     25     26 ar
    28     26     27 ar
    29     27     28 ar
    30     28     20 1 
    31     28     23 ar
    32      1     30 1 
    33      1     31 1 
    34      2     32 1 
    35      2     33 1 
    36      4     34 1 
    37      5     35 1 
    38      8     36 1 
    39     10     37 1 
    40     10     38 1 
    41     13     39 1 
    42     14     29 1 
    43     15     40 1 
    44     15     41 1 
    45     16     42 1 
    46     16     43 1 
    47     20     44 1 
    48     21     45 1 
    49     21     46 1 
    50     22     47 1 
    51     24     48 1 
    52     25     49 1 
    53     26     50 1 
    54     27     51 1 
@<TRIPOS>SUBSTRUCTURE
     1 MOL1         1 MOLECULE          1 A
