# Molecule written by the XED library from Cresset
@<TRIPOS>MOLECULE
CHEMBL597798
    41     42      1
SMALL
USER_CHARGES
@<TRIPOS>ATOM
      1 C           -0.6965    3.3021    0.4378 C.3       1 MOL1       -0.0933
      2 C           -1.9426    2.4047    0.4099 C.3       1 MOL1        0.0279
      3 N           -3.0035    3.1454   -0.2799 N.3       1 MOL1       -0.5874
      4 C           -1.6525    1.1040   -0.3190 C.2       1 MOL1        0.2908
      5 O           -0.7878    1.0291   -1.1815 O.2       1 MOL1       -0.4176
      6 N           -2.4159    0.0620    0.0676 N.am      1 MOL1       -0.3905
      7 C           -3.5246    0.1473    1.0354 C.3       1 MOL1        0.0725
      8 C           -4.3308   -1.1015    0.6608 C.3       1 MOL1       -0.0686
      9 C           -3.2807   -2.1152    0.1991 C.3       1 MOL1       -0.0562
     10 C           -2.2077   -1.2787   -0.5104 C.3       1 MOL1        0.1603
     11 C           -0.8634   -1.9403   -0.2866 C.2       1 MOL1        0.3241
     12 O           -0.5705   -2.9911   -0.8400 O.2       1 MOL1       -0.4176
     13 N           -0.0791   -1.2700    0.5738 N.am      1 MOL1       -0.3832
     14 C            1.2177   -1.8318    0.9878 C.3       1 MOL1        0.1148
     15 C            2.4313   -1.0192    0.5557 C.ar      1 MOL1       -0.0376
     16 C            3.6047   -1.6875    0.2818 C.ar      1 MOL1       -0.0898
     17 C            4.7316   -0.9925   -0.0954 C.ar      1 MOL1       -0.0836
     18 C            4.6928    0.3778   -0.2006 C.ar      1 MOL1       -0.0642
     19 C            3.5254    1.0524    0.0749 C.ar      1 MOL1        0.0434
     20 Cl           3.4796    2.7858   -0.0543 Cl        1 MOL1       -0.1082
     21 C            2.3991    0.3553    0.4530 C.ar      1 MOL1       -0.0581
     22 H           -2.2434    2.2133    1.5557 H         1 MOL1        0.0649
     23 H           -2.4486   -1.2318   -1.6853 H         1 MOL1        0.0678
     24  H           0.1975    2.7325    0.9999 H         1 MOL1        0.0449
     25  H          -0.9589    4.3176    1.0203 H         1 MOL1        0.0449
     26  H          -0.3631    3.5620   -0.6837 H         1 MOL1        0.0449
     27  H          -2.7292    3.4175   -1.2309 H         1 MOL1        0.2741
     28  H          -3.9092    2.6633   -0.2639 H         1 MOL1        0.2741
     29  H          -4.2095    1.1242    0.9060 H         1 MOL1        0.0593
     30  H          -3.1118    0.0408    2.1575 H         1 MOL1        0.0593
     31  H          -4.9733   -1.5110    1.5865 H         1 MOL1        0.0474
     32  H          -5.0470   -0.8391   -0.2639 H         1 MOL1        0.0474
     33  H          -3.7545   -2.9408   -0.5310 H         1 MOL1        0.0479
     34  H          -2.7892   -2.6404    1.1586 H         1 MOL1        0.0479
     35  H          -0.3435   -0.4983    0.9084 H         1 MOL1        0.2040
     36  H           1.2246   -1.8953    2.1861 H         1 MOL1        0.0620
     37  H           1.3102   -2.9501    0.5612 H         1 MOL1        0.0620
     38  H           3.6388   -2.6843    0.3593 H         1 MOL1        0.0908
     39  H           5.5798   -1.4846   -0.2927 H         1 MOL1        0.0906
     40  H           5.5112    0.8834   -0.4745 H         1 MOL1        0.0939
     41  H           1.5540    0.8499    0.6546 H         1 MOL1        0.0941
@<TRIPOS>BOND
     1      1      2 1 
     2      2      3 1 
     3      2      4 1 
     4      4      5 2 
     5      4      6 am
     6      6      7 1 
     7      7      8 1 
     8      8      9 1 
     9      9     10 1 
    10     10      6 1 
    11     10     11 1 
    12     11     12 2 
    13     11     13 am
    14     13     14 1 
    15     14     15 1 
    16     15     16 ar
    17     16     17 ar
    18     17     18 ar
    19     18     19 ar
    20     19     20 1 
    21     19     21 ar
    22     21     15 ar
    23      1     24 1 
    24      1     25 1 
    25      1     26 1 
    26      2     22 1 
    27      3     27 1 
    28      3     28 1 
    29      7     29 1 
    30      7     30 1 
    31      8     31 1 
    32      8     32 1 
    33      9     33 1 
    34      9     34 1 
    35     10     23 1 
    36     13     35 1 
    37     14     36 1 
    38     14     37 1 
    39     16     38 1 
    40     17     39 1 
    41     18     40 1 
    42     21     41 1 
@<TRIPOS>SUBSTRUCTURE
     1 MOL1         1 MOLECULE          1 A
