# Molecule written by the XED library from Cresset
@<TRIPOS>MOLECULE
CHEMBL2159374
    36     37      1
SMALL
USER_CHARGES
@<TRIPOS>ATOM
      1 C           -7.3614   -0.0527    0.0453 C.3       1 MOL1       -0.0471
      2 O           -6.2229   -0.9301    0.1383 O.3       1 MOL1       -0.2066
      3 C           -4.9847   -0.3973    0.1097 C.ar      1 MOL1        0.0281
      4 C           -4.7567    0.9635   -0.0153 C.ar      1 MOL1       -0.0813
      5 C           -3.4756    1.4520   -0.1114 C.ar      1 MOL1       -0.1027
      6 C           -2.3785    0.6097   -0.0831 C.ar      1 MOL1        0.0625
      7 N           -1.1017    1.1569   -0.3693 N.pl3     1 MOL1       -0.3011
      8 S            0.3755    0.7791    0.2878 S.3       1 MOL1        0.5498
      9 O           -0.1841   -0.0771   -0.7137 O.2       1 MOL1       -0.3088
     10 O            0.6380    2.1641    0.5865 O.2       1 MOL1       -0.3088
     11 C            1.8681   -0.2387    0.1974 C.ar      1 MOL1        0.0810
     12 C            1.7796   -1.6129    0.1180 C.ar      1 MOL1       -0.0477
     13 C            2.9289   -2.3498   -0.0205 C.ar      1 MOL1       -0.0867
     14 C            4.1552   -1.7295   -0.0663 C.ar      1 MOL1       -0.0578
     15 C            4.2850   -0.3469    0.0398 C.ar      1 MOL1       -0.0054
     16 C            3.1043    0.3758    0.1787 C.ar      1 MOL1       -0.0341
     17 C            5.6227    0.3435   -0.0088 C.2       1 MOL1        0.1553
     18 N            6.7500   -0.3180    0.0231 N.2       1 MOL1       -0.5838
     19 N            5.6749    1.6936   -0.0852 N.am      1 MOL1       -0.4206
     20 C           -2.6047   -0.7488    0.1038 C.ar      1 MOL1       -0.1027
     21 C           -3.8892   -1.2392    0.1877 C.ar      1 MOL1       -0.0813
     22  H          -8.3671   -0.7080    0.0504 H         1 MOL1        0.0618
     23  H          -7.3132    0.5822   -0.9722 H         1 MOL1        0.0618
     24  H          -7.3699    0.6939    0.9845 H         1 MOL1        0.0618
     25  H          -5.5299    1.5959   -0.0576 H         1 MOL1        0.0924
     26  H          -3.3338    2.4345   -0.2310 H         1 MOL1        0.0919
     27  H          -1.0737    1.8191   -0.9306 H         1 MOL1        0.2101
     28  H           0.8865   -2.0629    0.1418 H         1 MOL1        0.0915
     29  H           2.8736   -3.3451   -0.0975 H         1 MOL1        0.0906
     30  H           4.9612   -2.3039   -0.1833 H         1 MOL1        0.0910
     31  H           3.1370    1.3708    0.2540 H         1 MOL1        0.0919
     32  H           6.6418   -1.3037    0.0992 H         1 MOL1        0.2200
     33  H           4.9451    2.1786   -0.1301 H         1 MOL1        0.2753
     34  H           6.4593    2.0944   -0.0917 H         1 MOL1        0.2753
     35  H          -1.8316   -1.3815    0.1404 H         1 MOL1        0.0919
     36  H          -4.0315   -2.2244    0.2881 H         1 MOL1        0.0924
@<TRIPOS>BOND
     1      1      2 1 
     2      2      3 1 
     3      3      4 ar
     4      4      5 ar
     5      5      6 ar
     6      6      7 1 
     7      6     20 ar
     8      7      8 1 
     9      8      9 2 
    10      8     10 2 
    11      8     11 1 
    12     11     12 ar
    13     12     13 ar
    14     13     14 ar
    15     14     15 ar
    16     15     16 ar
    17     15     17 1 
    18     16     11 ar
    19     17     18 2 
    20     17     19 am
    21     20     21 ar
    22     21      3 ar
    23      1     22 1 
    24      1     23 1 
    25      1     24 1 
    26      4     25 1 
    27      5     26 1 
    28      7     27 1 
    29     12     28 1 
    30     13     29 1 
    31     14     30 1 
    32     16     31 1 
    33     18     32 1 
    34     19     33 1 
    35     19     34 1 
    36     20     35 1 
    37     21     36 1 
@<TRIPOS>SUBSTRUCTURE
     1 MOL1         1 MOLECULE          1 A
