# Molecule written by the XED library from Cresset
@<TRIPOS>MOLECULE
CHEMBL3632761
    48     51      1
SMALL
USER_CHARGES
@<TRIPOS>ATOM
      1 N           -7.6024    1.1290    0.0277 N.am      1 MOL1       -0.4220
      2 C           -6.7221    0.0981   -0.0059 C.2       1 MOL1        0.1469
      3 N           -7.1138   -1.1471   -0.0028 N.2       1 MOL1       -0.5931
      4 C           -5.2562    0.3482   -0.0433 C.ar      1 MOL1       -0.0270
      5 C           -4.7074    1.6403    0.0968 C.ar      1 MOL1       -0.0780
      6 C           -3.3600    1.8557    0.0815 C.ar      1 MOL1       -0.0955
      7 C           -2.5369    0.7484   -0.0794 C.ar      1 MOL1        0.0683
      8 N           -1.1796    0.7767   -0.0995 N.pl3     1 MOL1       -0.1822
      9 C           -0.8092   -0.5470   -0.2701 C.ar      1 MOL1        0.0648
     10 C           -1.8950   -1.3446   -0.3674 C.ar      1 MOL1       -0.1475
     11 C           -3.0472   -0.5225   -0.2320 C.ar      1 MOL1       -0.0392
     12 C           -4.4214   -0.7345   -0.2124 C.ar      1 MOL1       -0.0633
     13 C            0.5775   -0.9521   -0.3116 C.ar      1 MOL1        0.0867
     14 C            0.9085   -2.2257   -0.7400 C.ar      1 MOL1       -0.0649
     15 C            2.2201   -2.6230   -0.7660 C.ar      1 MOL1       -0.0979
     16 C            3.2107   -1.7465   -0.3527 C.ar      1 MOL1       -0.0745
     17 C            2.8767   -0.4929    0.0690 C.ar      1 MOL1        0.0719
     18 N            1.5706   -0.1001    0.0813 N.pl3     1 MOL1        0.1676
     19 O            1.2927    1.0348    0.4750 O.co2     1 MOL1       -0.3898
     20 C            3.8881    0.5409    0.5767 C.3       1 MOL1        0.0568
     21 O            3.2049    1.0639    1.7248 O.3       1 MOL1       -0.4291
     22 C            5.2527    0.0051    1.0871 C.3       1 MOL1       -0.0546
     23 C            6.3122   -0.2123   -0.0187 C.3       1 MOL1       -0.0870
     24 C            6.4750    1.0537   -0.8808 C.3       1 MOL1       -0.0919
     25 C            5.1188    1.4111   -1.5132 C.3       1 MOL1       -0.0870
     26 C            4.1111    1.7305   -0.3919 C.3       1 MOL1       -0.0546
     27 H           -0.6613    1.4830   -0.0367 H         1 MOL1        0.2043
     28  H          -8.4677    0.9742    0.0688 H         1 MOL1        0.2753
     29  H          -7.3201    1.9606    0.0064 H         1 MOL1        0.2753
     30  H          -8.1099   -1.2321    0.0266 H         1 MOL1        0.2200
     31  H          -5.3153    2.4235    0.2158 H         1 MOL1        0.0910
     32  H          -2.9798    2.7747    0.1857 H         1 MOL1        0.0919
     33  H          -1.8930   -2.3361   -0.4939 H         1 MOL1        0.0923
     34  H          -4.7962   -1.6559   -0.3142 H         1 MOL1        0.0914
     35  H           0.1931   -2.8592   -1.0329 H         1 MOL1        0.0922
     36  H           2.4607   -3.5429   -1.0763 H         1 MOL1        0.0906
     37  H           4.1642   -2.0399   -0.3563 H         1 MOL1        0.0920
     38  H           3.0317    0.3433    2.4052 H         1 MOL1        0.3291
     39  H           5.0776   -1.0223    1.6823 H         1 MOL1        0.0487
     40  H           5.6949    0.8168    1.8516 H         1 MOL1        0.0487
     41  H           6.0058   -1.1255   -0.7325 H         1 MOL1        0.0460
     42  H           7.3634   -0.4745    0.4977 H         1 MOL1        0.0460
     43  H           6.8482    1.9658   -0.1959 H         1 MOL1        0.0460
     44  H           7.2818    0.8444   -1.7439 H         1 MOL1        0.0460
     45  H           5.2376    2.3780   -2.2141 H         1 MOL1        0.0460
     46  H           4.7315    0.4842   -2.1697 H         1 MOL1        0.0460
     47  H           3.0680    2.0706   -0.8801 H         1 MOL1        0.0487
     48  H           4.5528    2.6524    0.2367 H         1 MOL1        0.0487
@<TRIPOS>BOND
     1      1      2 am
     2      2      3 2 
     3      2      4 1 
     4      4      5 ar
     5      5      6 ar
     6      6      7 ar
     7      7      8 ar
     8      8      9 ar
     9      9     10 ar
    10      9     13 1 
    11     10     11 ar
    12     11      7 ar
    13     11     12 ar
    14     12      4 ar
    15     13     14 ar
    16     14     15 ar
    17     15     16 ar
    18     16     17 ar
    19     17     18 ar
    20     17     20 1 
    21     18     13 ar
    22     18     19 1 
    23     20     21 1 
    24     20     22 1 
    25     22     23 1 
    26     23     24 1 
    27     24     25 1 
    28     25     26 1 
    29     26     20 1 
    30      1     28 1 
    31      1     29 1 
    32      3     30 1 
    33      5     31 1 
    34      6     32 1 
    35      8     27 1 
    36     10     33 1 
    37     12     34 1 
    38     14     35 1 
    39     15     36 1 
    40     16     37 1 
    41     21     38 1 
    42     22     39 1 
    43     22     40 1 
    44     23     41 1 
    45     23     42 1 
    46     24     43 1 
    47     24     44 1 
    48     25     45 1 
    49     25     46 1 
    50     26     47 1 
    51     26     48 1 
@<TRIPOS>SUBSTRUCTURE
     1 MOL1         1 MOLECULE          1 A
