# Molecule written by the XED library from Cresset
@<TRIPOS>MOLECULE
CHEMBL599649
    51     53      1
SMALL
USER_CHARGES
@<TRIPOS>ATOM
      1 N           -4.0715    1.1833   -1.0428 N.3       1 MOL1       -0.5857
      2 C           -3.8337    0.6723    0.3142 C.3       1 MOL1        0.0365
      3 C           -4.7181   -0.5525    0.6529 C.3       1 MOL1       -0.0382
      4 C           -4.6168   -1.6980   -0.3647 C.3       1 MOL1       -0.0849
      5 C           -5.8789   -2.5393   -0.1197 C.3       1 MOL1       -0.0916
      6 C           -6.9314   -1.5711    0.4591 C.3       1 MOL1       -0.0916
      7 C           -6.2182   -0.2214    0.6712 C.3       1 MOL1       -0.0849
      8 C           -2.3602    0.3448    0.4877 C.2       1 MOL1        0.2929
      9 O           -1.9689   -0.8096    0.6078 O.2       1 MOL1       -0.4176
     10 N           -1.5409    1.4211    0.4995 N.am      1 MOL1       -0.3905
     11 C           -1.9909    2.8235    0.4104 C.3       1 MOL1        0.0725
     12 C           -0.6717    3.6095    0.3434 C.3       1 MOL1       -0.0686
     13 C            0.3754    2.5715   -0.0637 C.3       1 MOL1       -0.0562
     14 C           -0.0800    1.2824    0.6344 C.3       1 MOL1        0.1603
     15 C            0.5412    0.0734   -0.0280 C.2       1 MOL1        0.3241
     16 O           -0.1007   -0.6799   -0.7463 O.2       1 MOL1       -0.4176
     17 N            1.8430   -0.0639    0.2782 N.am      1 MOL1       -0.3832
     18 C            2.6122   -1.1842   -0.2876 C.3       1 MOL1        0.1148
     19 C            4.1252   -1.0581   -0.1497 C.ar      1 MOL1       -0.0376
     20 C            4.8750   -2.2063   -0.0148 C.ar      1 MOL1       -0.0898
     21 C            6.2447   -2.1368    0.1056 C.ar      1 MOL1       -0.0836
     22 C            6.8775   -0.9147    0.0903 C.ar      1 MOL1       -0.0642
     23 C            6.1354    0.2365   -0.0474 C.ar      1 MOL1        0.0434
     24 Cl           6.9179    1.7890   -0.0657 Cl        1 MOL1       -0.1082
     25 C            4.7659    0.1624   -0.1697 C.ar      1 MOL1       -0.0581
     26 H           -4.1526    1.5250    1.0946 H         1 MOL1        0.0653
     27 H            0.1973    1.3257    1.8007 H         1 MOL1        0.0678
     28  H          -3.7914    0.5181   -1.7753 H         1 MOL1        0.2741
     29  H          -5.0315    1.5268   -1.1692 H         1 MOL1        0.2741
     30  H          -4.4134   -0.9739    1.7348 H         1 MOL1        0.0503
     31  H          -3.6105   -2.3347   -0.2224 H         1 MOL1        0.0463
     32  H          -4.6660   -1.2350   -1.4704 H         1 MOL1        0.0463
     33  H          -6.2462   -3.0419   -1.1449 H         1 MOL1        0.0460
     34  H          -5.6253   -3.3996    0.6776 H         1 MOL1        0.0460
     35  H          -7.3395   -1.9857    1.5102 H         1 MOL1        0.0460
     36  H          -7.8547   -1.4459   -0.2985 H         1 MOL1        0.0460
     37  H          -6.5480    0.2943    1.7038 H         1 MOL1        0.0463
     38  H          -6.4649    0.5065   -0.2503 H         1 MOL1        0.0463
     39  H          -2.6210    3.1624    1.3746 H         1 MOL1        0.0593
     40  H          -2.6224    3.0009   -0.5937 H         1 MOL1        0.0593
     41  H          -0.3849    4.0271    1.4317 H         1 MOL1        0.0474
     42  H          -0.7358    4.5121   -0.4436 H         1 MOL1        0.0474
     43  H           1.4803    2.8895    0.2760 H         1 MOL1        0.0479
     44  H           0.3386    2.4124   -1.2519 H         1 MOL1        0.0479
     45  H           2.2365    0.5109    0.8178 H         1 MOL1        0.2040
     46  H           2.3422   -1.2728   -1.4531 H         1 MOL1        0.0620
     47  H           2.2441   -2.1877    0.2589 H         1 MOL1        0.0620
     48  H           4.4207   -3.0973   -0.0050 H         1 MOL1        0.0908
     49  H           6.7806   -2.9755    0.2041 H         1 MOL1        0.0906
     50  H           7.8723   -0.8645    0.1795 H         1 MOL1        0.0939
     51  H           4.2322    1.0014   -0.2714 H         1 MOL1        0.0941
@<TRIPOS>BOND
     1      1      2 1 
     2      2      3 1 
     3      2      8 1 
     4      3      4 1 
     5      4      5 1 
     6      5      6 1 
     7      6      7 1 
     8      7      3 1 
     9      8      9 2 
    10      8     10 am
    11     10     11 1 
    12     11     12 1 
    13     12     13 1 
    14     13     14 1 
    15     14     10 1 
    16     14     15 1 
    17     15     16 2 
    18     15     17 am
    19     17     18 1 
    20     18     19 1 
    21     19     20 ar
    22     20     21 ar
    23     21     22 ar
    24     22     23 ar
    25     23     24 1 
    26     23     25 ar
    27     25     19 ar
    28      1     28 1 
    29      1     29 1 
    30      2     26 1 
    31      3     30 1 
    32      4     31 1 
    33      4     32 1 
    34      5     33 1 
    35      5     34 1 
    36      6     35 1 
    37      6     36 1 
    38      7     37 1 
    39      7     38 1 
    40     11     39 1 
    41     11     40 1 
    42     12     41 1 
    43     12     42 1 
    44     13     43 1 
    45     13     44 1 
    46     14     27 1 
    47     17     45 1 
    48     18     46 1 
    49     18     47 1 
    50     20     48 1 
    51     21     49 1 
    52     22     50 1 
    53     25     51 1 
@<TRIPOS>SUBSTRUCTURE
     1 MOL1         1 MOLECULE          1 A
