# Molecule written by the XED library from Cresset
@<TRIPOS>MOLECULE
CHEMBL111471
    47     49      1
SMALL
USER_CHARGES
@<TRIPOS>ATOM
      1 C           -7.8360   -2.0559   -0.5284 C.3       1 MOL1       -0.0924
      2 C           -7.2357   -0.6798   -0.1950 C.3       1 MOL1       -0.0228
      3 C           -8.0224   -0.1210    1.0062 C.3       1 MOL1       -0.0924
      4 O           -5.8271   -0.8385    0.1013 O.3       1 MOL1       -0.1976
      5 C           -4.9773    0.1912   -0.0520 C.ar      1 MOL1        0.0559
      6 C           -5.3909    1.4940   -0.2902 C.ar      1 MOL1       -0.1095
      7 C           -4.4694    2.5031   -0.4419 C.ar      1 MOL1       -0.0839
      8 C           -3.1256    2.2288   -0.3616 C.ar      1 MOL1       -0.1186
      9 C           -2.6834    0.9381   -0.1272 C.ar      1 MOL1        0.0709
     10 N           -1.3018    0.6811   -0.0608 N.am      1 MOL1       -0.2240
     11 C           -0.6656   -0.5143    0.0239 C.2       1 MOL1        0.3240
     12 O           -1.2528   -1.5917    0.0758 O.2       1 MOL1       -0.4094
     13 C            0.8229   -0.5875    0.0418 C.ar      1 MOL1        0.0086
     14 C            1.4405   -1.8601    0.0677 C.ar      1 MOL1       -0.0652
     15 C            2.7845   -2.0040    0.0746 C.ar      1 MOL1       -0.0757
     16 C            3.6146   -0.8690    0.0554 C.ar      1 MOL1       -0.0126
     17 C            5.0106   -0.9942    0.0550 C.ar      1 MOL1       -0.0411
     18 C            5.8331    0.1033    0.0289 C.ar      1 MOL1       -0.0044
     19 C            5.2063    1.3745    0.0089 C.ar      1 MOL1       -0.0652
     20 C            3.8626    1.5246    0.0123 C.ar      1 MOL1       -0.0773
     21 C            3.0248    0.3975    0.0334 C.ar      1 MOL1       -0.0112
     22 C            1.6281    0.5215    0.0281 C.ar      1 MOL1       -0.0453
     23 C            7.3343   -0.0008    0.0199 C.2       1 MOL1        0.1553
     24 N            7.9554   -1.1504   -0.0138 N.2       1 MOL1       -0.5812
     25 N            8.0818    1.1269    0.0447 N.am      1 MOL1       -0.4212
     26 C           -3.6229   -0.0666    0.0310 C.ar      1 MOL1       -0.0944
     27  H          -8.9999   -1.9277   -0.7897 H         1 MOL1        0.0455
     28  H          -7.7218   -2.7881    0.4161 H         1 MOL1        0.0455
     29  H          -7.2705   -2.5321   -1.4744 H         1 MOL1        0.0455
     30  H          -7.4119    0.0014   -1.1674 H         1 MOL1        0.0662
     31  H          -9.1693    0.0301    0.6896 H         1 MOL1        0.0455
     32  H          -7.5646    0.9299    1.3592 H         1 MOL1        0.0455
     33  H          -7.9640   -0.9023    1.9150 H         1 MOL1        0.0455
     34  H          -6.3646    1.7068   -0.3535 H         1 MOL1        0.0924
     35  H          -4.7783    3.4389   -0.6120 H         1 MOL1        0.0906
     36  H          -2.4612    2.9672   -0.4756 H         1 MOL1        0.0919
     37  H          -0.7897    1.3933   -0.0951 H         1 MOL1        0.2056
     38  H           0.8650   -2.6779    0.0795 H         1 MOL1        0.0910
     39  H           3.1886   -2.9185    0.0919 H         1 MOL1        0.0910
     40  H           5.3930   -1.9135    0.0735 H         1 MOL1        0.0914
     41  H           5.7679    2.1983   -0.0090 H         1 MOL1        0.0910
     42  H           3.4639    2.4417   -0.0023 H         1 MOL1        0.0910
     43  H           1.2248    1.4345    0.0117 H         1 MOL1        0.0914
     44  H           7.3520   -1.9398   -0.0378 H         1 MOL1        0.2200
     45  H           7.7141    1.9223    0.0740 H         1 MOL1        0.2753
     46  H           8.9593    1.0602    0.0310 H         1 MOL1        0.2753
     47  H          -3.3173   -1.0014    0.2056 H         1 MOL1        0.0937
@<TRIPOS>BOND
     1      1      2 1 
     2      2      3 1 
     3      2      4 1 
     4      4      5 1 
     5      5      6 ar
     6      6      7 ar
     7      7      8 ar
     8      8      9 ar
     9      9     10 1 
    10      9     26 ar
    11     10     11 am
    12     11     12 2 
    13     11     13 1 
    14     13     14 ar
    15     14     15 ar
    16     15     16 ar
    17     16     17 ar
    18     17     18 ar
    19     18     19 ar
    20     18     23 1 
    21     19     20 ar
    22     20     21 ar
    23     21     16 ar
    24     21     22 ar
    25     22     13 ar
    26     23     24 2 
    27     23     25 am
    28     26      5 ar
    29      1     27 1 
    30      1     28 1 
    31      1     29 1 
    32      2     30 1 
    33      3     31 1 
    34      3     32 1 
    35      3     33 1 
    36      6     34 1 
    37      7     35 1 
    38      8     36 1 
    39     10     37 1 
    40     14     38 1 
    41     15     39 1 
    42     17     40 1 
    43     19     41 1 
    44     20     42 1 
    45     22     43 1 
    46     24     44 1 
    47     25     45 1 
    48     25     46 1 
    49     26     47 1 
@<TRIPOS>SUBSTRUCTURE
     1 MOL1         1 MOLECULE          1 A
