# Molecule written by the XED library from Cresset
@<TRIPOS>MOLECULE
CHEMBL52427
    45     48      1
SMALL
USER_CHARGES
@<TRIPOS>ATOM
      1 C           -2.5404   -4.1649   -0.3030 C.3       1 MOL1       -0.0802
      2 C           -2.2596   -2.6819   -0.1756 C.ar      1 MOL1       -0.0815
      3 C           -3.2880   -1.7732   -0.1277 C.ar      1 MOL1       -0.0757
      4 C           -3.0468   -0.4133   -0.0079 C.ar      1 MOL1       -0.0148
      5 C           -1.7173    0.0089    0.0761 C.ar      1 MOL1        0.0825
      6 O           -1.4367    1.3280    0.2513 O.3       1 MOL1       -0.3773
      7 C           -0.6597   -0.8990    0.0011 C.ar      1 MOL1       -0.0045
      8 C           -0.9599   -2.2465   -0.1173 C.ar      1 MOL1       -0.0737
      9 C            0.7420   -0.4976    0.0330 C.ar      1 MOL1        0.0620
     10 C            1.8168   -1.3120    0.0456 C.ar      1 MOL1       -0.1488
     11 C            2.9869   -0.4991    0.0448 C.ar      1 MOL1       -0.0394
     12 C            4.3562   -0.7333    0.0419 C.ar      1 MOL1       -0.0593
     13 C            5.2321    0.3390    0.0251 C.ar      1 MOL1       -0.0267
     14 C            4.6806    1.6409    0.0170 C.ar      1 MOL1       -0.0765
     15 C            3.3368    1.8828    0.0224 C.ar      1 MOL1       -0.0936
     16 C            2.4936    0.7833    0.0353 C.ar      1 MOL1        0.0665
     17 N            1.1307    0.8279    0.0319 N.pl3     1 MOL1       -0.1768
     18 C            6.7243    0.1586    0.0122 C.2       1 MOL1        0.1473
     19 N            7.2853   -1.0228   -0.0010 N.2       1 MOL1       -0.5935
     20 N            7.5310    1.2455    0.0114 N.am      1 MOL1       -0.4220
     21 C           -4.1974    0.4904    0.0033 C.ar      1 MOL1       -0.0179
     22 C           -4.1017    1.7858   -0.4849 C.ar      1 MOL1       -0.0849
     23 C           -5.1837    2.6327   -0.4884 C.ar      1 MOL1       -0.0897
     24 C           -6.3967    2.2009   -0.0053 C.ar      1 MOL1       -0.0938
     25 C           -6.5188    0.9197    0.4799 C.ar      1 MOL1       -0.0897
     26 C           -5.4332    0.0771    0.4837 C.ar      1 MOL1       -0.0849
     27 H            0.6218    1.5433    0.0187 H         1 MOL1        0.2043
     28  H          -3.7219   -4.3762   -0.3320 H         1 MOL1        0.0465
     29  H          -2.0405   -4.5765   -1.3133 H         1 MOL1        0.0465
     30  H          -2.0608   -4.7376    0.6361 H         1 MOL1        0.0465
     31  H          -4.2281   -2.1047   -0.1898 H         1 MOL1        0.0912
     32  H          -2.1716    1.7992    0.7498 H         1 MOL1        0.3295
     33  H          -0.2211   -2.9168   -0.1648 H         1 MOL1        0.0912
     34  H           1.8028   -2.3111    0.0472 H         1 MOL1        0.0923
     35  H           4.6821   -1.6745    0.0490 H         1 MOL1        0.0914
     36  H           5.2908    2.4294    0.0055 H         1 MOL1        0.0910
     37  H           2.9759    2.8153    0.0153 H         1 MOL1        0.0919
     38  H           6.6423   -1.7805   -0.0028 H         1 MOL1        0.2200
     39  H           7.2072    2.0600    0.0222 H         1 MOL1        0.2753
     40  H           8.4035    1.1314   -0.0003 H         1 MOL1        0.2753
     41  H          -3.2273    2.1105   -0.8449 H         1 MOL1        0.0910
     42  H          -5.0898    3.5627   -0.8436 H         1 MOL1        0.0906
     43  H          -7.1860    2.8149   -0.0076 H         1 MOL1        0.0906
     44  H          -7.3993    0.6012    0.8308 H         1 MOL1        0.0906
     45  H          -5.5401   -0.8485    0.8437 H         1 MOL1        0.0910
@<TRIPOS>BOND
     1      1      2 1 
     2      2      3 ar
     3      3      4 ar
     4      4      5 ar
     5      4     21 1 
     6      5      6 1 
     7      5      7 ar
     8      7      8 ar
     9      7      9 1 
    10      8      2 ar
    11      9     10 ar
    12     10     11 ar
    13     11     12 ar
    14     12     13 ar
    15     13     14 ar
    16     13     18 1 
    17     14     15 ar
    18     15     16 ar
    19     16     11 ar
    20     16     17 ar
    21     17      9 ar
    22     18     19 2 
    23     18     20 am
    24     21     22 ar
    25     22     23 ar
    26     23     24 ar
    27     24     25 ar
    28     25     26 ar
    29     26     21 ar
    30      1     28 1 
    31      1     29 1 
    32      1     30 1 
    33      3     31 1 
    34      6     32 1 
    35      8     33 1 
    36     10     34 1 
    37     12     35 1 
    38     14     36 1 
    39     15     37 1 
    40     17     27 1 
    41     19     38 1 
    42     20     39 1 
    43     20     40 1 
    44     22     41 1 
    45     23     42 1 
    46     24     43 1 
    47     25     44 1 
    48     26     45 1 
@<TRIPOS>SUBSTRUCTURE
     1 MOL1         1 MOLECULE          1 A
