# Molecule written by the XED library from Cresset
@<TRIPOS>MOLECULE
CHEMBL273861
    47     49      1
SMALL
USER_CHARGES
@<TRIPOS>ATOM
      1 C            1.2195    2.8575    0.7910 C.3       1 MOL1       -0.0659
      2 C            2.2190    1.7364    0.5993 C.2       1 MOL1        0.0634
      3 C            3.5552    1.9440    0.5111 C.2       1 MOL1       -0.1320
      4 C            4.4491    0.8481    0.3543 C.2       1 MOL1       -0.0546
      5 C            3.9167   -0.3905    0.1447 C.2       1 MOL1        0.0834
      6 N            4.7229   -1.4822   -0.0468 N.pl3     1 MOL1       -0.2084
      7 C            6.0324   -1.4005   -0.3391 C.2       1 MOL1        0.2931
      8 O            6.7848   -2.3624   -0.3102 O.2       1 MOL1       -0.4161
      9 C            6.4804   -0.0047   -0.7231 C.3       1 MOL1       -0.0091
     10 C            5.9406    1.0441    0.2635 C.3       1 MOL1       -0.0341
     11 C            2.4931   -0.5602    0.1764 C.2       1 MOL1        0.2842
     12 O            2.0867   -1.6951   -0.0829 O.2       1 MOL1       -0.4813
     13 N            1.6999    0.4808    0.5021 N.am      1 MOL1       -0.1820
     14 C            0.2864    0.1921    0.8329 C.3       1 MOL1        0.1486
     15 C           -0.7482    0.6807   -0.1566 C.2       1 MOL1        0.3219
     16 O           -0.4566    1.0501   -1.2862 O.2       1 MOL1       -0.4181
     17 N           -1.9931    0.6454    0.3547 N.am      1 MOL1       -0.3833
     18 C           -3.1219    1.1188   -0.4615 C.3       1 MOL1        0.1140
     19 C           -4.4510    0.3949   -0.2410 C.ar      1 MOL1       -0.0562
     20 C           -5.5662    1.1851   -0.0552 C.ar      1 MOL1       -0.0358
     21 C           -6.7876    0.6064    0.1024 C.ar      1 MOL1       -0.1028
     22 C           -6.8779   -0.7739    0.0783 C.ar      1 MOL1        0.1224
     23 N           -8.1119   -1.3903    0.2200 N.pl3     1 MOL1       -0.4398
     24 N           -5.8161   -1.5892   -0.0817 N.ar      1 MOL1       -0.3666
     25 C           -4.6225   -0.9740   -0.2440 C.ar      1 MOL1        0.0398
     26 C           -3.4299   -1.8924   -0.4348 C.3       1 MOL1       -0.0659
     27  H           0.6356    2.7503    1.8328 H         1 MOL1        0.0476
     28  H           0.4295    2.8635   -0.1113 H         1 MOL1        0.0476
     29  H           1.7905    3.9131    0.8067 H         1 MOL1        0.0476
     30  H           3.9176    2.8618    0.5748 H         1 MOL1        0.0919
     31  H           4.3714   -2.2833    0.0533 H         1 MOL1        0.2055
     32  H           7.6789    0.0530   -0.7489 H         1 MOL1        0.0530
     33  H           6.0554    0.2465   -1.8172 H         1 MOL1        0.0530
     34  H           6.1885    2.1522   -0.1227 H         1 MOL1        0.0495
     35  H           6.4324    0.8649    1.3436 H         1 MOL1        0.0495
     36  H           0.1533   -0.9989    0.9055 H         1 MOL1        0.0657
     37  H           0.0590    0.6255    1.9271 H         1 MOL1        0.0657
     38  H          -2.1373    0.3547    1.1764 H         1 MOL1        0.2040
     39  H          -3.2472    2.2893   -0.2251 H         1 MOL1        0.0620
     40  H          -2.8185    1.0072   -1.6177 H         1 MOL1        0.0620
     41  H          -5.4832    2.1807   -0.0426 H         1 MOL1        0.0908
     42  H          -7.6043    1.1680    0.2294 H         1 MOL1        0.0926
     43  H          -8.8441   -0.9043    0.1659 H         1 MOL1        0.2753
     44  H          -8.1682   -2.2541    0.0586 H         1 MOL1        0.2753
     45  H          -2.5637   -1.3457   -1.0588 H         1 MOL1        0.0476
     46  H          -3.7765   -2.8776   -1.0270 H         1 MOL1        0.0476
     47  H          -3.0079   -2.2067    0.6445 H         1 MOL1        0.0476
@<TRIPOS>BOND
     1      1      2 1 
     2      2      3 2 
     3      3      4 1 
     4      4      5 2 
     5      5      6 1 
     6      5     11 1 
     7      6      7 am
     8      7      8 2 
     9      7      9 1 
    10      9     10 1 
    11     10      4 1 
    12     11     12 2 
    13     11     13 am
    14     13      2 1 
    15     13     14 1 
    16     14     15 1 
    17     15     16 2 
    18     15     17 am
    19     17     18 1 
    20     18     19 1 
    21     19     20 ar
    22     20     21 ar
    23     21     22 ar
    24     22     23 1 
    25     22     24 ar
    26     24     25 ar
    27     25     19 ar
    28     25     26 1 
    29      1     27 1 
    30      1     28 1 
    31      1     29 1 
    32      3     30 1 
    33      6     31 1 
    34      9     32 1 
    35      9     33 1 
    36     10     34 1 
    37     10     35 1 
    38     14     36 1 
    39     14     37 1 
    40     17     38 1 
    41     18     39 1 
    42     18     40 1 
    43     20     41 1 
    44     21     42 1 
    45     23     43 1 
    46     23     44 1 
    47     26     45 1 
    48     26     46 1 
    49     26     47 1 
@<TRIPOS>SUBSTRUCTURE
     1 MOL1         1 MOLECULE          1 A
