# Molecule written by the XED library from Cresset
@<TRIPOS>MOLECULE
CHEMBL150962
    46     48      1
SMALL
USER_CHARGES
@<TRIPOS>ATOM
      1 N           -8.7685   -0.5023    0.0007 N.am      1 MOL1       -0.4216
      2 C           -7.6355   -1.2462    0.0000 C.2       1 MOL1        0.1561
      3 N           -7.6619   -2.5505   -0.0006 N.2       1 MOL1       -0.5779
      4 C           -6.2976   -0.5947   -0.0002 C.ar      1 MOL1       -0.0026
      5 C           -6.1133    0.7820    0.0033 C.ar      1 MOL1       -0.0581
      6 C           -4.8525    1.3220    0.0032 C.ar      1 MOL1       -0.0722
      7 C           -3.7279    0.5099   -0.0005 C.ar      1 MOL1       -0.0127
      8 C           -2.3998    1.1617   -0.0001 C.2       1 MOL1       -0.0303
      9 C           -1.2207    0.5049   -0.0017 C.2       1 MOL1       -0.0275
     10 C           -0.7793   -0.9407   -0.0019 C.3       1 MOL1       -0.0406
     11 C            0.7635   -0.9393    0.0081 C.3       1 MOL1       -0.0406
     12 C            1.2015    0.5072    0.0042 C.2       1 MOL1       -0.0275
     13 C            2.3792    1.1661   -0.0011 C.2       1 MOL1       -0.0303
     14 C            3.7081    0.5160   -0.0002 C.ar      1 MOL1       -0.0127
     15 C            3.9004   -0.8561    0.0173 C.ar      1 MOL1       -0.0722
     16 C            5.1613   -1.3913    0.0176 C.ar      1 MOL1       -0.0581
     17 C            6.3030   -0.5965   -0.0005 C.ar      1 MOL1       -0.0026
     18 C            6.0945    0.7809   -0.0185 C.ar      1 MOL1       -0.0581
     19 C            4.8342    1.3220   -0.0175 C.ar      1 MOL1       -0.0722
     20 C            7.6682   -1.2262   -0.0006 C.2       1 MOL1        0.1561
     21 N            8.7627   -0.5127    0.0191 N.2       1 MOL1       -0.5779
     22 N            7.7829   -2.5748   -0.0209 N.am      1 MOL1       -0.4216
     23 C           -0.0104    1.2866    0.0004 C.2       1 MOL1        0.1802
     24 O           -0.0114    2.5105   -0.0008 O.2       1 MOL1       -0.3945
     25 C           -3.9131   -0.8655   -0.0045 C.ar      1 MOL1       -0.0722
     26 C           -5.1726   -1.4042   -0.0042 C.ar      1 MOL1       -0.0581
     27  H          -9.5571   -0.8927    0.0009 H         1 MOL1        0.2753
     28  H          -8.7279    0.3753    0.0008 H         1 MOL1        0.2753
     29  H          -8.5944   -2.9118   -0.0005 H         1 MOL1        0.2200
     30  H          -6.9040    1.3922    0.0061 H         1 MOL1        0.0910
     31  H          -4.7423    2.3159    0.0058 H         1 MOL1        0.0910
     32  H          -2.3703    2.1525    0.0014 H         1 MOL1        0.0912
     33  H          -1.1929   -1.4943    0.9800 H         1 MOL1        0.0495
     34  H          -1.1804   -1.4886   -0.9921 H         1 MOL1        0.0495
     35  H           1.1644   -1.4832    1.0007 H         1 MOL1        0.0495
     36  H           1.1794   -1.4950   -0.9717 H         1 MOL1        0.0495
     37  H           2.3481    2.1567   -0.0063 H         1 MOL1        0.0912
     38  H           3.1151   -1.4690    0.0303 H         1 MOL1        0.0910
     39  H           5.2496   -2.3845    0.0317 H         1 MOL1        0.0910
     40  H           6.8687    1.4079   -0.0332 H         1 MOL1        0.0910
     41  H           4.7265    2.3161   -0.0301 H         1 MOL1        0.0910
     42  H           8.6078    0.4691    0.0377 H         1 MOL1        0.2200
     43  H           7.0784   -3.0969   -0.0396 H         1 MOL1        0.2753
     44  H           8.5848   -2.9372   -0.0160 H         1 MOL1        0.2753
     45  H          -3.1255   -1.4756   -0.0076 H         1 MOL1        0.0910
     46  H          -5.2820   -2.3982   -0.0069 H         1 MOL1        0.0910
@<TRIPOS>BOND
     1      1      2 am
     2      2      3 2 
     3      2      4 1 
     4      4      5 ar
     5      5      6 ar
     6      6      7 ar
     7      7      8 1 
     8      7     25 ar
     9      8      9 2 
    10      9     10 1 
    11      9     23 1 
    12     10     11 1 
    13     11     12 1 
    14     12     13 2 
    15     12     23 1 
    16     13     14 1 
    17     14     15 ar
    18     15     16 ar
    19     16     17 ar
    20     17     18 ar
    21     17     20 1 
    22     18     19 ar
    23     19     14 ar
    24     20     21 2 
    25     20     22 am
    26     23     24 2 
    27     25     26 ar
    28     26      4 ar
    29      1     27 1 
    30      1     28 1 
    31      3     29 1 
    32      5     30 1 
    33      6     31 1 
    34      8     32 1 
    35     10     33 1 
    36     10     34 1 
    37     11     35 1 
    38     11     36 1 
    39     13     37 1 
    40     15     38 1 
    41     16     39 1 
    42     18     40 1 
    43     19     41 1 
    44     21     42 1 
    45     22     43 1 
    46     22     44 1 
    47     25     45 1 
    48     26     46 1 
@<TRIPOS>SUBSTRUCTURE
     1 MOL1         1 MOLECULE          1 A
