# Molecule written by the XED library from Cresset
@<TRIPOS>MOLECULE
CHEMBL62397
    47     50      1
SMALL
USER_CHARGES
@<TRIPOS>ATOM
      1 N            5.8375   -3.2983   -0.0308 N.am      1 MOL1       -0.4236
      2 C            6.1846   -1.9864   -0.0289 C.2       1 MOL1        0.1483
      3 N            7.4363   -1.6134   -0.0406 N.2       1 MOL1       -0.5957
      4 C            5.1407   -0.9236   -0.0102 C.ar      1 MOL1        0.0010
      5 C            3.7939   -1.2465   -0.0391 C.ar      1 MOL1       -0.0587
      6 C            2.8851   -0.2069   -0.0116 C.ar      1 MOL1        0.0634
      7 N            1.4992   -0.3116   -0.0288 N.pl3     1 MOL1       -0.1632
      8 C            1.0613    0.9523    0.0233 C.ar      1 MOL1        0.2270
      9 N            2.0834    1.8145    0.0672 N.ar      1 MOL1       -0.3995
     10 C            3.2567    1.1044    0.0436 C.ar      1 MOL1        0.0368
     11 C            4.6056    1.4581    0.0671 C.ar      1 MOL1       -0.0664
     12 C            5.5194    0.4426    0.0395 C.ar      1 MOL1        0.1227
     13 F            6.8151    0.7828    0.0630 F         1 MOL1       -0.1436
     14 C           -0.3371    1.3196    0.0368 C.ar      1 MOL1        0.0056
     15 C           -0.6291    2.6663    0.2041 C.ar      1 MOL1       -0.0741
     16 C           -1.9268    3.1031    0.2366 C.ar      1 MOL1       -0.1007
     17 C           -2.9627    2.2041    0.0964 C.ar      1 MOL1       -0.0664
     18 C           -2.7078    0.8573   -0.0819 C.ar      1 MOL1        0.0702
     19 O           -3.6876   -0.0508   -0.2414 O.3       1 MOL1       -0.1969
     20 C           -5.0640    0.3631   -0.1008 C.3       1 MOL1       -0.0071
     21 C           -6.0344   -0.8016   -0.3707 C.3       1 MOL1       -0.0129
     22 C           -5.9298   -1.9526    0.6434 C.3       1 MOL1       -0.0685
     23 C           -7.3301   -2.5957    0.6449 C.3       1 MOL1       -0.0748
     24 C           -8.2272   -1.6167   -0.1352 C.3       1 MOL1       -0.0522
     25 N           -7.4261   -0.3926   -0.1822 N.3       1 MOL1       -0.4212
     26 C           -1.3888    0.4193   -0.1058 C.ar      1 MOL1        0.0913
     27 O           -1.1277   -0.9075   -0.2741 O.3       1 MOL1       -0.3753
     28 H            1.0241   -1.0503   -0.0603 H         1 MOL1        0.2049
     29 H           -5.8868   -1.2297   -1.4820 H         1 MOL1        0.0609
     30  H           6.4579   -3.9221   -0.0466 H         1 MOL1        0.2753
     31  H           4.9941   -3.5408   -0.0151 H         1 MOL1        0.2753
     32  H           8.0657   -2.3905   -0.0519 H         1 MOL1        0.2200
     33  H           3.4810   -2.1938   -0.0770 H         1 MOL1        0.0923
     34  H           4.8919    2.4157    0.1042 H         1 MOL1        0.0944
     35  H           0.1163    3.3258    0.3048 H         1 MOL1        0.0910
     36  H          -2.1235    4.0755    0.3611 H         1 MOL1        0.0906
     37  H          -3.9046    2.5362    0.1224 H         1 MOL1        0.0924
     38  H          -5.2460    0.7949    1.0041 H         1 MOL1        0.0655
     39  H          -5.3124    1.2137   -0.9105 H         1 MOL1        0.0655
     40  H          -5.0807   -2.7401    0.3282 H         1 MOL1        0.0474
     41  H          -5.6860   -1.4920    1.7248 H         1 MOL1        0.0474
     42  H          -7.3068   -3.6636    0.0965 H         1 MOL1        0.0471
     43  H          -7.7313   -2.7286    1.7685 H         1 MOL1        0.0471
     44  H          -9.2847   -1.4396    0.4031 H         1 MOL1        0.0566
     45  H          -8.3876   -2.0140   -1.2569 H         1 MOL1        0.0566
     46  H          -7.5579    0.2056    0.6424 H         1 MOL1        0.2749
     47  H          -1.9700   -1.4511   -0.3520 H         1 MOL1        0.3295
@<TRIPOS>BOND
     1      1      2 am
     2      2      3 2 
     3      2      4 1 
     4      4      5 ar
     5      5      6 ar
     6      6      7 ar
     7      7      8 ar
     8      8      9 ar
     9      8     14 1 
    10      9     10 ar
    11     10      6 ar
    12     10     11 ar
    13     11     12 ar
    14     12      4 ar
    15     12     13 1 
    16     14     15 ar
    17     15     16 ar
    18     16     17 ar
    19     17     18 ar
    20     18     19 1 
    21     18     26 ar
    22     19     20 1 
    23     20     21 1 
    24     21     22 1 
    25     22     23 1 
    26     23     24 1 
    27     24     25 1 
    28     25     21 1 
    29     26     14 ar
    30     26     27 1 
    31      1     30 1 
    32      1     31 1 
    33      3     32 1 
    34      5     33 1 
    35      7     28 1 
    36     11     34 1 
    37     15     35 1 
    38     16     36 1 
    39     17     37 1 
    40     20     38 1 
    41     20     39 1 
    42     21     29 1 
    43     22     40 1 
    44     22     41 1 
    45     23     42 1 
    46     23     43 1 
    47     24     44 1 
    48     24     45 1 
    49     25     46 1 
    50     27     47 1 
@<TRIPOS>SUBSTRUCTURE
     1 MOL1         1 MOLECULE          1 A
