# Molecule written by the XED library from Cresset
@<TRIPOS>MOLECULE
CHEMBL367626
    54     57      1
SMALL
USER_CHARGES
@<TRIPOS>ATOM
      1 N            8.4049   -2.5131    0.0089 N.am      1 MOL1       -0.4220
      2 C            8.0936   -1.1934    0.0028 C.2       1 MOL1        0.1472
      3 N            9.0125   -0.2656   -0.0084 N.2       1 MOL1       -0.5931
      4 C            6.6755   -0.7434    0.0063 C.ar      1 MOL1       -0.0267
      5 C            5.5893   -1.6401    0.0679 C.ar      1 MOL1       -0.0775
      6 C            4.2938   -1.2068    0.0677 C.ar      1 MOL1       -0.0916
      7 C            4.0709    0.1647    0.0032 C.ar      1 MOL1        0.0622
      8 C            5.1195    1.0558   -0.0570 C.ar      1 MOL1       -0.0421
      9 C            4.4832    2.3317   -0.1151 C.ar      1 MOL1       -0.1645
     10 C            3.1683    2.1169   -0.0886 C.ar      1 MOL1       -0.0014
     11 N            2.8459    0.7821   -0.0127 N.pl3     1 MOL1       -0.1815
     12 C            1.5117    0.1511    0.0213 C.3       1 MOL1        0.1475
     13 C            0.3139    1.0855    0.0282 C.2       1 MOL1        0.3186
     14 O            0.4303    2.2628    0.3389 O.2       1 MOL1       -0.4176
     15 N           -0.8541    0.5275   -0.3611 N.am      1 MOL1       -0.3984
     16 C           -1.9905    1.3957   -0.7108 C.3       1 MOL1        0.0721
     17 C           -3.2635    1.0280    0.0732 C.3       1 MOL1       -0.0691
     18 C           -3.6151   -0.4674   -0.0972 C.3       1 MOL1       -0.0502
     19 C           -4.8166   -0.8608    0.8015 C.3       1 MOL1       -0.0419
     20 C           -6.2071   -0.3593    0.4121 C.ar      1 MOL1       -0.0469
     21 C           -6.5532    0.9524    0.6578 C.ar      1 MOL1       -0.0814
     22 C           -7.8000    1.4305    0.3231 C.ar      1 MOL1       -0.1046
     23 C           -8.7242    0.5939   -0.2583 C.ar      1 MOL1       -0.0853
     24 C           -8.3962   -0.7195   -0.4980 C.ar      1 MOL1       -0.0710
     25 C           -7.1458   -1.1956   -0.1642 C.ar      1 MOL1        0.1119
     26 F           -6.8626   -2.4846   -0.3990 F         1 MOL1       -0.1460
     27 C           -2.3899   -1.3224    0.3030 C.3       1 MOL1       -0.0691
     28 C           -1.1088   -0.9265   -0.4654 C.3       1 MOL1        0.0721
     29 C            6.4344    0.6123   -0.0550 C.ar      1 MOL1       -0.0584
     30  H           9.2459   -2.7718    0.0119 H         1 MOL1        0.2753
     31  H           7.7724   -3.1228    0.0086 H         1 MOL1        0.2753
     32  H           9.9372   -0.6470   -0.0108 H         1 MOL1        0.2200
     33  H           5.7650   -2.6221    0.1130 H         1 MOL1        0.0910
     34  H           3.5325   -1.8535    0.1112 H         1 MOL1        0.0919
     35  H           4.9389    3.2201   -0.1676 H         1 MOL1        0.0919
     36  H           2.4906    2.8506   -0.1206 H         1 MOL1        0.0997
     37  H           1.4645   -0.5413   -0.9572 H         1 MOL1        0.0657
     38  H           1.4820   -0.5278    1.0100 H         1 MOL1        0.0657
     39  H          -1.7189    2.5405   -0.4767 H         1 MOL1        0.0593
     40  H          -2.2134    1.2866   -1.8845 H         1 MOL1        0.0593
     41  H          -4.1573    1.7126   -0.3399 H         1 MOL1        0.0476
     42  H          -3.0740    1.2680    1.2330 H         1 MOL1        0.0476
     43  H          -3.8816   -0.6875   -1.2463 H         1 MOL1        0.0490
     44  H          -4.5844   -0.4853    1.9166 H         1 MOL1        0.0495
     45  H          -4.8555   -2.0584    0.8564 H         1 MOL1        0.0495
     46  H          -5.8896    1.5663    1.0845 H         1 MOL1        0.0908
     47  H          -8.0343    2.3857    0.5045 H         1 MOL1        0.0906
     48  H          -9.6308    0.9386   -0.5026 H         1 MOL1        0.0906
     49  H          -9.0668   -1.3324   -0.9155 H         1 MOL1        0.0931
     50  H          -2.1882   -1.1683    1.4759 H         1 MOL1        0.0476
     51  H          -2.6136   -2.4831    0.0934 H         1 MOL1        0.0476
     52  H          -1.2387   -1.2148   -1.6232 H         1 MOL1        0.0593
     53  H          -0.2413   -1.6058    0.0052 H         1 MOL1        0.0593
     54  H           7.1922    1.2635   -0.0988 H         1 MOL1        0.0914
@<TRIPOS>BOND
     1      1      2 am
     2      2      3 2 
     3      2      4 1 
     4      4      5 ar
     5      5      6 ar
     6      6      7 ar
     7      7      8 ar
     8      8      9 ar
     9      8     29 ar
    10      9     10 ar
    11     10     11 ar
    12     11      7 ar
    13     11     12 1 
    14     12     13 1 
    15     13     14 2 
    16     13     15 am
    17     15     16 1 
    18     16     17 1 
    19     17     18 1 
    20     18     19 1 
    21     18     27 1 
    22     19     20 1 
    23     20     21 ar
    24     21     22 ar
    25     22     23 ar
    26     23     24 ar
    27     24     25 ar
    28     25     20 ar
    29     25     26 1 
    30     27     28 1 
    31     28     15 1 
    32     29      4 ar
    33      1     30 1 
    34      1     31 1 
    35      3     32 1 
    36      5     33 1 
    37      6     34 1 
    38      9     35 1 
    39     10     36 1 
    40     12     37 1 
    41     12     38 1 
    42     16     39 1 
    43     16     40 1 
    44     17     41 1 
    45     17     42 1 
    46     18     43 1 
    47     19     44 1 
    48     19     45 1 
    49     21     46 1 
    50     22     47 1 
    51     23     48 1 
    52     24     49 1 
    53     27     50 1 
    54     27     51 1 
    55     28     52 1 
    56     28     53 1 
    57     29     54 1 
@<TRIPOS>SUBSTRUCTURE
     1 MOL1         1 MOLECULE          1 A
