# Molecule written by the XED library from Cresset
@<TRIPOS>MOLECULE
CHEMBL343827
    47     50      1
SMALL
USER_CHARGES
@<TRIPOS>ATOM
      1 N           -8.3518   -1.8832   -0.0010 N.am      1 MOL1       -0.4223
      2 C           -6.9960   -1.8433   -0.0010 C.2       1 MOL1        0.1475
      3 N           -6.2725   -2.9299   -0.0016 N.2       1 MOL1       -0.5906
      4 C           -6.2708   -0.5450   -0.0004 C.ar      1 MOL1       -0.0203
      5 C           -6.9472    0.6966    0.0017 C.ar      1 MOL1       -0.0803
      6 C           -6.2817    1.8853    0.0028 C.ar      1 MOL1       -0.0805
      7 C           -4.8869    1.8346    0.0016 C.ar      1 MOL1        0.0310
      8 N           -3.9140    2.8006    0.0029 N.ar      1 MOL1       -0.4036
      9 C           -2.7368    2.1972    0.0012 C.ar      1 MOL1        0.1957
     10 N           -2.8687    0.8386   -0.0017 N.pl3     1 MOL1       -0.1550
     11 C           -1.8053   -0.1846   -0.0044 C.3       1 MOL1        0.1480
     12 C           -0.3765    0.3201   -0.0096 C.2       1 MOL1        0.3321
     13 O           -0.0850    1.5054   -0.0358 O.2       1 MOL1       -0.4128
     14 N            0.5154   -0.6882    0.0160 N.am      1 MOL1       -0.2109
     15 C            1.9147   -0.5726    0.0127 C.ar      1 MOL1        0.0722
     16 C            2.7058   -1.7064   -0.0109 C.ar      1 MOL1       -0.1005
     17 C            4.0747   -1.6049   -0.0147 C.ar      1 MOL1       -0.0775
     18 C            4.7180   -0.3715    0.0055 C.ar      1 MOL1       -0.0454
     19 C            3.9068    0.7570    0.0302 C.ar      1 MOL1       -0.0775
     20 C            2.5390    0.6624    0.0339 C.ar      1 MOL1       -0.1005
     21 C            6.1784   -0.2595    0.0013 C.ar      1 MOL1       -0.0221
     22 C            6.9924   -1.3862    0.0066 C.ar      1 MOL1       -0.0865
     23 C            8.3627   -1.2856    0.0025 C.ar      1 MOL1       -0.0898
     24 C            8.9653   -0.0502   -0.0069 C.ar      1 MOL1       -0.0954
     25 C            8.1859    1.0819   -0.0122 C.ar      1 MOL1       -0.0898
     26 C            6.8160    0.9763   -0.0084 C.ar      1 MOL1       -0.0865
     27 C           -4.2215    0.6401   -0.0009 C.ar      1 MOL1        0.0693
     28 C           -4.8903   -0.5738   -0.0019 C.ar      1 MOL1       -0.0583
     29  H          -8.7741   -2.6552   -0.0013 H         1 MOL1        0.2753
     30  H          -8.8228   -1.1419   -0.0009 H         1 MOL1        0.2753
     31  H          -6.8320   -3.7590   -0.0019 H         1 MOL1        0.2200
     32  H          -7.9454    0.7118    0.0027 H         1 MOL1        0.0910
     33  H          -6.7714    2.7571    0.0044 H         1 MOL1        0.0919
     34  H          -1.8619    2.6799    0.0020 H         1 MOL1        0.1080
     35  H          -1.9580   -0.8741   -0.9748 H         1 MOL1        0.0657
     36  H          -1.9536   -0.8722    0.9679 H         1 MOL1        0.0657
     37  H           0.1886   -1.5070    0.0355 H         1 MOL1        0.2055
     38  H           2.2764   -2.6094   -0.0256 H         1 MOL1        0.0919
     39  H           4.6118   -2.4450   -0.0331 H         1 MOL1        0.0910
     40  H           4.3178    1.6651    0.0463 H         1 MOL1        0.0910
     41  H           1.9912    1.4973    0.0523 H         1 MOL1        0.0919
     42  H           6.5833   -2.2956    0.0141 H         1 MOL1        0.0910
     43  H           8.9233   -2.1138    0.0066 H         1 MOL1        0.0906
     44  H           9.9626    0.0242   -0.0098 H         1 MOL1        0.0906
     45  H           8.6169    1.9842   -0.0191 H         1 MOL1        0.0906
     46  H           6.2768    1.8150   -0.0133 H         1 MOL1        0.0910
     47  H          -4.3907   -1.4401   -0.0035 H         1 MOL1        0.0923
@<TRIPOS>BOND
     1      1      2 am
     2      2      3 2 
     3      2      4 1 
     4      4      5 ar
     5      5      6 ar
     6      6      7 ar
     7      7      8 ar
     8      8      9 ar
     9      9     10 ar
    10     10     11 1 
    11     10     27 ar
    12     11     12 1 
    13     12     13 2 
    14     12     14 am
    15     14     15 1 
    16     15     16 ar
    17     16     17 ar
    18     17     18 ar
    19     18     19 ar
    20     18     21 1 
    21     19     20 ar
    22     20     15 ar
    23     21     22 ar
    24     22     23 ar
    25     23     24 ar
    26     24     25 ar
    27     25     26 ar
    28     26     21 ar
    29     27      7 ar
    30     27     28 ar
    31     28      4 ar
    32      1     29 1 
    33      1     30 1 
    34      3     31 1 
    35      5     32 1 
    36      6     33 1 
    37      9     34 1 
    38     11     35 1 
    39     11     36 1 
    40     14     37 1 
    41     16     38 1 
    42     17     39 1 
    43     19     40 1 
    44     20     41 1 
    45     22     42 1 
    46     23     43 1 
    47     24     44 1 
    48     25     45 1 
    49     26     46 1 
    50     28     47 1 
@<TRIPOS>SUBSTRUCTURE
     1 MOL1         1 MOLECULE          1 A
