# Molecule written by the XED library from Cresset
@<TRIPOS>MOLECULE
CHEMBL603261
    50     51      1
SMALL
USER_CHARGES
@<TRIPOS>ATOM
      1 C           -2.0810    4.1481   -0.6717 C.3       1 MOL1       -0.1137
      2 C           -1.3092    2.8579   -0.3352 C.3       1 MOL1       -0.0279
      3 C           -0.8972    2.1967   -1.6605 C.3       1 MOL1       -0.1137
      4 C           -0.0288    3.2871    0.4053 C.3       1 MOL1       -0.1137
      5 C           -2.1552    1.9042    0.5569 C.3       1 MOL1        0.0384
      6 N           -3.5975    2.0928    0.3621 N.3       1 MOL1       -0.5849
      7 C           -1.5917    0.4883    0.6663 C.2       1 MOL1        0.2933
      8 O           -0.5278    0.3213    1.2452 O.2       1 MOL1       -0.4176
      9 N           -2.3249   -0.5298    0.1545 N.am      1 MOL1       -0.3905
     10 C           -3.5587   -0.4100   -0.6483 C.3       1 MOL1        0.0725
     11 C           -3.9911   -1.8599   -0.9205 C.3       1 MOL1       -0.0686
     12 C           -2.7333   -2.6930   -0.6801 C.3       1 MOL1       -0.0562
     13 C           -1.9699   -1.9389    0.4181 C.3       1 MOL1        0.1603
     14 C           -0.5244   -2.3908    0.3760 C.2       1 MOL1        0.3241
     15 O           -0.1276   -3.3259    1.0576 O.2       1 MOL1       -0.4176
     16 N            0.2229   -1.7035   -0.5024 N.am      1 MOL1       -0.3832
     17 C            1.5631   -2.1949   -0.8613 C.3       1 MOL1        0.1148
     18 C            2.7353   -1.3040   -0.4797 C.ar      1 MOL1       -0.0376
     19 C            3.9658   -1.9031   -0.3191 C.ar      1 MOL1       -0.0898
     20 C            5.0727   -1.1524    0.0042 C.ar      1 MOL1       -0.0836
     21 C            4.9540    0.2072    0.1705 C.ar      1 MOL1       -0.0642
     22 C            3.7282    0.8135    0.0106 C.ar      1 MOL1        0.0434
     23 Cl           3.5829    2.5341    0.2157 Cl        1 MOL1       -0.1082
     24 C            2.6217    0.0595   -0.3152 C.ar      1 MOL1       -0.0581
     25 H           -2.0234    2.3205    1.6748 H         1 MOL1        0.0655
     26 H           -2.4344   -2.2395    1.4831 H         1 MOL1        0.0678
     27  H          -3.0467    3.8679   -1.3271 H         1 MOL1        0.0438
     28  H          -2.4306    4.6812    0.3451 H         1 MOL1        0.0438
     29  H          -1.3779    4.8942   -1.2953 H         1 MOL1        0.0438
     30  H          -0.2859    2.9831   -2.3288 H         1 MOL1        0.0438
     31  H          -1.8669    1.8457   -2.2695 H         1 MOL1        0.0438
     32  H          -0.1908    1.2585   -1.4246 H         1 MOL1        0.0438
     33  H           0.6055    2.3264    0.7412 H         1 MOL1        0.0438
     34  H          -0.3161    3.9396    1.3711 H         1 MOL1        0.0438
     35  H           0.6430    3.9667   -0.3207 H         1 MOL1        0.0438
     36  H          -3.8992    1.8626   -0.5915 H         1 MOL1        0.2741
     37  H          -4.1570    1.6255    1.0856 H         1 MOL1        0.2741
     38  H          -3.3479    0.1542   -1.6845 H         1 MOL1        0.0593
     39  H          -4.4539    0.1095   -0.0432 H         1 MOL1        0.0593
     40  H          -4.8249   -2.1999   -0.1260 H         1 MOL1        0.0474
     41  H          -4.4037   -2.0038   -2.0383 H         1 MOL1        0.0474
     42  H          -3.0014   -3.8152   -0.3500 H         1 MOL1        0.0479
     43  H          -2.0704   -2.6973   -1.6801 H         1 MOL1        0.0479
     44  H          -0.1017   -0.9905   -0.9004 H         1 MOL1        0.2040
     45  H           1.5864   -2.3365   -2.0524 H         1 MOL1        0.0620
     46  H           1.7179   -3.2750   -0.3605 H         1 MOL1        0.0620
     47  H           4.0555   -2.8917   -0.4413 H         1 MOL1        0.0908
     48  H           5.9624   -1.5953    0.1171 H         1 MOL1        0.0906
     49  H           5.7569    0.7547    0.4053 H         1 MOL1        0.0939
     50  H           1.7336    0.5034   -0.4348 H         1 MOL1        0.0941
@<TRIPOS>BOND
     1      1      2 1 
     2      2      3 1 
     3      2      4 1 
     4      2      5 1 
     5      5      6 1 
     6      5      7 1 
     7      7      8 2 
     8      7      9 am
     9      9     10 1 
    10     10     11 1 
    11     11     12 1 
    12     12     13 1 
    13     13      9 1 
    14     13     14 1 
    15     14     15 2 
    16     14     16 am
    17     16     17 1 
    18     17     18 1 
    19     18     19 ar
    20     19     20 ar
    21     20     21 ar
    22     21     22 ar
    23     22     23 1 
    24     22     24 ar
    25     24     18 ar
    26      1     27 1 
    27      1     28 1 
    28      1     29 1 
    29      3     30 1 
    30      3     31 1 
    31      3     32 1 
    32      4     33 1 
    33      4     34 1 
    34      4     35 1 
    35      5     25 1 
    36      6     36 1 
    37      6     37 1 
    38     10     38 1 
    39     10     39 1 
    40     11     40 1 
    41     11     41 1 
    42     12     42 1 
    43     12     43 1 
    44     13     26 1 
    45     16     44 1 
    46     17     45 1 
    47     17     46 1 
    48     19     47 1 
    49     20     48 1 
    50     21     49 1 
    51     24     50 1 
@<TRIPOS>SUBSTRUCTURE
     1 MOL1         1 MOLECULE          1 A
