# Molecule written by the XED library from Cresset
@<TRIPOS>MOLECULE
CHEMBL53304
    24     24      1
SMALL
USER_CHARGES
@<TRIPOS>ATOM
      1 C            4.5163    1.8974   -0.2914 C.3       1 MOL1       -0.0439
      2 O            3.4786    0.9024   -0.3731 O.3       1 MOL1       -0.1622
      3 C            3.6951   -0.3378    0.1791 C.2       1 MOL1        0.3313
      4 N            4.8289   -0.7884    0.6580 N.2       1 MOL1       -0.5668
      5 N            2.5891   -1.1246    0.1776 N.am      1 MOL1       -0.2485
      6 S            1.1809   -0.7618   -0.5221 S.3       1 MOL1        0.5619
      7 O            0.9880   -2.0465   -1.1059 O.2       1 MOL1       -0.3088
      8 O            1.3196   -0.4722    0.8644 O.2       1 MOL1       -0.3088
      9 C           -0.5176   -0.2236   -0.2404 C.ar      1 MOL1        0.0983
     10 C           -1.5339   -1.1425   -0.0190 C.ar      1 MOL1        0.1511
     11 F           -1.2820   -2.4594    0.0360 F         1 MOL1       -0.1439
     12 C           -2.8305   -0.7024    0.1516 C.ar      1 MOL1        0.1449
     13 F           -3.8176   -1.5910    0.3501 F         1 MOL1       -0.1430
     14 C           -3.1169    0.6488    0.1205 C.ar      1 MOL1        0.1536
     15 F           -4.3824    1.0707    0.2940 F         1 MOL1       -0.1421
     16 C           -2.1015    1.5642   -0.0833 C.ar      1 MOL1        0.1449
     17 F           -2.3796    2.8786   -0.0982 F         1 MOL1       -0.1430
     18 C           -0.8053    1.1276   -0.2690 C.ar      1 MOL1        0.1511
     19 F            0.1826    2.0084   -0.4693 F         1 MOL1       -0.1439
     20  H           5.4552    1.5713   -0.9616 H         1 MOL1        0.0618
     21  H           4.0853    2.9275   -0.7330 H         1 MOL1        0.0618
     22  H           4.8431    2.0953    0.8474 H         1 MOL1        0.0618
     23  H           5.5797   -0.1359    0.5876 H         1 MOL1        0.2209
     24  H           2.6754   -1.9293    0.5313 H         1 MOL1        0.2114
@<TRIPOS>BOND
     1      1      2 1 
     2      2      3 1 
     3      3      4 2 
     4      3      5 am
     5      5      6 1 
     6      6      7 2 
     7      6      8 2 
     8      6      9 1 
     9      9     10 ar
    10     10     11 1 
    11     10     12 ar
    12     12     13 1 
    13     12     14 ar
    14     14     15 1 
    15     14     16 ar
    16     16     17 1 
    17     16     18 ar
    18     18      9 ar
    19     18     19 1 
    20      1     20 1 
    21      1     21 1 
    22      1     22 1 
    23      4     23 1 
    24      5     24 1 
@<TRIPOS>SUBSTRUCTURE
     1 MOL1         1 MOLECULE          1 A
