# Molecule written by the XED library from Cresset
@<TRIPOS>MOLECULE
CHEMBL319997
    37     40      1
SMALL
USER_CHARGES
@<TRIPOS>ATOM
      1 N           -7.0668    0.3342    0.0002 N.am      1 MOL1       -0.4220
      2 C           -6.0067   -0.5109    0.0001 C.2       1 MOL1        0.1478
      3 N           -6.1555   -1.8074   -0.0002 N.2       1 MOL1       -0.5922
      4 C           -4.6135    0.0118    0.0000 C.ar      1 MOL1       -0.0234
      5 C           -4.3224    1.3952    0.0000 C.ar      1 MOL1       -0.0746
      6 C           -3.0396    1.8658   -0.0001 C.ar      1 MOL1       -0.0910
      7 C           -2.0323    0.9138   -0.0001 C.ar      1 MOL1        0.0816
      8 N           -0.6740    1.1513   -0.0001 N.pl3     1 MOL1       -0.1595
      9 C           -0.1085   -0.0736    0.0000 C.ar      1 MOL1        0.2156
     10 N           -1.0439   -1.0280    0.0000 N.ar      1 MOL1       -0.4035
     11 C           -2.2810   -0.4281    0.0000 C.ar      1 MOL1        0.0250
     12 C           -3.5879   -0.9087    0.0000 C.ar      1 MOL1       -0.0507
     13 C            1.3183   -0.2974    0.0000 C.ar      1 MOL1       -0.0004
     14 C            1.7509   -1.6395    0.0000 C.ar      1 MOL1       -0.0654
     15 C            3.0643   -1.9528    0.0000 C.ar      1 MOL1       -0.1021
     16 C            4.0323   -0.9318    0.0000 C.ar      1 MOL1       -0.0135
     17 C            5.3966   -1.2638    0.0000 C.ar      1 MOL1       -0.0851
     18 C            6.3322   -0.2843    0.0000 C.ar      1 MOL1       -0.0835
     19 C            5.9454    1.0614    0.0000 C.ar      1 MOL1       -0.0945
     20 C            4.6340    1.4023    0.0001 C.ar      1 MOL1       -0.0689
     21 C            3.6319    0.4118    0.0001 C.ar      1 MOL1       -0.0061
     22 C            2.2500    0.7166    0.0000 C.ar      1 MOL1        0.1127
     23 O            1.8299    2.0084    0.0000 O.3       1 MOL1       -0.3719
     24 H           -0.2752    1.9338   -0.0002 H         1 MOL1        0.2049
     25  H          -7.8878    0.0177    0.0005 H         1 MOL1        0.2753
     26  H          -6.9468    1.2043    0.0002 H         1 MOL1        0.2753
     27  H          -7.1177   -2.0795   -0.0003 H         1 MOL1        0.2200
     28  H          -5.0717    2.0551   -0.0001 H         1 MOL1        0.0910
     29  H          -2.8380    2.8453   -0.0002 H         1 MOL1        0.0919
     30  H          -3.7761   -1.8909    0.0001 H         1 MOL1        0.0923
     31  H           1.0719   -2.3737    0.0000 H         1 MOL1        0.0910
     32  H           3.3490   -2.9114    0.0000 H         1 MOL1        0.0910
     33  H           5.6778   -2.2234    0.0000 H         1 MOL1        0.0910
     34  H           7.3033   -0.5229    0.0000 H         1 MOL1        0.0906
     35  H           6.6432    1.7776    0.0001 H         1 MOL1        0.0906
     36  H           4.3826    2.3687    0.0002 H         1 MOL1        0.0910
     37  H           2.5967    2.6566    0.0004 H         1 MOL1        0.3295
@<TRIPOS>BOND
     1      1      2 am
     2      2      3 2 
     3      2      4 1 
     4      4      5 ar
     5      5      6 ar
     6      6      7 ar
     7      7      8 ar
     8      8      9 ar
     9      9     10 ar
    10      9     13 1 
    11     10     11 ar
    12     11      7 ar
    13     11     12 ar
    14     12      4 ar
    15     13     14 ar
    16     14     15 ar
    17     15     16 ar
    18     16     17 ar
    19     17     18 ar
    20     18     19 ar
    21     19     20 ar
    22     20     21 ar
    23     21     16 ar
    24     21     22 ar
    25     22     13 ar
    26     22     23 1 
    27      1     25 1 
    28      1     26 1 
    29      3     27 1 
    30      5     28 1 
    31      6     29 1 
    32      8     24 1 
    33     12     30 1 
    34     14     31 1 
    35     15     32 1 
    36     17     33 1 
    37     18     34 1 
    38     19     35 1 
    39     20     36 1 
    40     23     37 1 
@<TRIPOS>SUBSTRUCTURE
     1 MOL1         1 MOLECULE          1 A
