# Molecule written by the XED library from Cresset
@<TRIPOS>MOLECULE
CHEMBL3423002
    44     45      1
SMALL
USER_CHARGES
@<TRIPOS>ATOM
      1 C           -0.9563    3.6360    0.1587 C.3       1 MOL1       -0.1124
      2 C           -2.2748    2.8475    0.2355 C.3       1 MOL1       -0.0172
      3 C           -2.1581    1.4962   -0.4440 C.2       1 MOL1        0.2832
      4 O           -1.2571    1.2462   -1.2331 O.2       1 MOL1       -0.4204
      5 N           -3.1170    0.6144   -0.0948 N.am      1 MOL1       -0.3910
      6 C           -4.2494    0.9242    0.7978 C.3       1 MOL1        0.0725
      7 C           -5.2369   -0.1888    0.4257 C.3       1 MOL1       -0.0686
      8 C           -4.3438   -1.3779    0.0620 C.3       1 MOL1       -0.0562
      9 C           -3.1242   -0.7567   -0.6362 C.3       1 MOL1        0.1603
     10 C           -1.9184   -1.6344   -0.3699 C.2       1 MOL1        0.3241
     11 O           -1.7930   -2.7266   -0.9061 O.2       1 MOL1       -0.4176
     12 N           -1.0492   -1.0955    0.5020 N.am      1 MOL1       -0.3832
     13 C            0.1175   -1.8694    0.9546 C.3       1 MOL1        0.1157
     14 C            1.4528   -1.2022    0.6609 C.ar      1 MOL1       -0.0267
     15 C            2.5062   -1.9737    0.2226 C.ar      1 MOL1       -0.0825
     16 C            3.7336   -1.4083   -0.0275 C.ar      1 MOL1       -0.0574
     17 C            3.9456   -0.0501    0.1610 C.ar      1 MOL1       -0.0078
     18 C            2.8747    0.7171    0.5964 C.ar      1 MOL1       -0.0574
     19 C            1.6476    0.1497    0.8438 C.ar      1 MOL1       -0.0825
     20 C            5.2767    0.5803   -0.0931 C.2       1 MOL1        0.1549
     21 N            6.3846   -0.0890    0.0779 N.2       1 MOL1       -0.5838
     22 N            5.3261    1.8684   -0.4988 N.am      1 MOL1       -0.4206
     23 H           -3.3311   -0.7021   -1.8169 H         1 MOL1        0.0678
     24  H          -0.0877    3.0196    0.7117 H         1 MOL1        0.0435
     25  H          -0.6579    3.8051   -0.9910 H         1 MOL1        0.0435
     26  H          -1.0980    4.6999    0.6953 H         1 MOL1        0.0435
     27  H          -3.1291    3.4929   -0.3055 H         1 MOL1        0.0525
     28  H          -2.5447    2.7159    1.3968 H         1 MOL1        0.0525
     29  H          -4.7469    1.9968    0.5941 H         1 MOL1        0.0593
     30  H          -3.9227    0.8060    1.9463 H         1 MOL1        0.0593
     31  H          -5.9816   -0.4480    1.3309 H         1 MOL1        0.0474
     32  H          -5.8573    0.1459   -0.5455 H         1 MOL1        0.0474
     33  H          -3.9835   -1.9149    1.0728 H         1 MOL1        0.0479
     34  H          -4.9113   -2.1615   -0.6479 H         1 MOL1        0.0479
     35  H          -1.1810   -0.2865    0.8216 H         1 MOL1        0.2040
     36  H           0.0285   -2.0097    2.1432 H         1 MOL1        0.0620
     37  H           0.0881   -2.9576    0.4486 H         1 MOL1        0.0620
     38  H           2.3772   -2.9562    0.0872 H         1 MOL1        0.0908
     39  H           4.4782   -1.9905   -0.3511 H         1 MOL1        0.0910
     40  H           2.9957    1.6990    0.7384 H         1 MOL1        0.0910
     41  H           0.8911    0.7214    1.1616 H         1 MOL1        0.0908
     42  H           6.2362   -1.0195    0.4091 H         1 MOL1        0.2200
     43  H           4.5883    2.3259   -0.6408 H         1 MOL1        0.2753
     44  H           6.1071    2.2535   -0.6255 H         1 MOL1        0.2753
@<TRIPOS>BOND
     1      1      2 1 
     2      2      3 1 
     3      3      4 2 
     4      3      5 am
     5      5      6 1 
     6      6      7 1 
     7      7      8 1 
     8      8      9 1 
     9      9      5 1 
    10      9     10 1 
    11     10     11 2 
    12     10     12 am
    13     12     13 1 
    14     13     14 1 
    15     14     15 ar
    16     15     16 ar
    17     16     17 ar
    18     17     18 ar
    19     17     20 1 
    20     18     19 ar
    21     19     14 ar
    22     20     21 2 
    23     20     22 am
    24      1     24 1 
    25      1     25 1 
    26      1     26 1 
    27      2     27 1 
    28      2     28 1 
    29      6     29 1 
    30      6     30 1 
    31      7     31 1 
    32      7     32 1 
    33      8     33 1 
    34      8     34 1 
    35      9     23 1 
    36     12     35 1 
    37     13     36 1 
    38     13     37 1 
    39     15     38 1 
    40     16     39 1 
    41     18     40 1 
    42     19     41 1 
    43     21     42 1 
    44     22     43 1 
    45     22     44 1 
@<TRIPOS>SUBSTRUCTURE
     1 MOL1         1 MOLECULE          1 A
