# Molecule written by the XED library from Cresset
@<TRIPOS>MOLECULE
CHEMBL3902337
    52     54      1
SMALL
USER_CHARGES
@<TRIPOS>ATOM
      1 C           -0.6649    1.6422   -1.6991 C.3       1 MOL1       -0.0868
      2 C           -0.9312    1.3509   -0.2115 C.3       1 MOL1        0.1692
      3 C           -0.9383    2.6468    0.6176 C.3       1 MOL1       -0.0546
      4 C           -2.4030    3.1008    0.6546 C.3       1 MOL1       -0.0682
      5 C           -3.1925    1.7898    0.7428 C.3       1 MOL1        0.0728
      6 N           -2.3025    0.8664    0.0185 N.am      1 MOL1       -0.3895
      7 C           -2.6768   -0.3636   -0.3865 C.2       1 MOL1        0.2987
      8 O           -2.0270   -1.0548   -1.1594 O.2       1 MOL1       -0.4171
      9 C           -3.9490   -0.8598    0.2720 C.3       1 MOL1        0.0621
     10 C           -4.2204   -2.3673    0.0132 C.3       1 MOL1       -0.0510
     11 C           -5.7560   -2.5896    0.0206 C.3       1 MOL1       -0.0178
     12 C           -6.2006   -1.1806   -0.2429 C.2       1 MOL1        0.2305
     13 N           -5.2613   -0.3201   -0.1305 N.2       1 MOL1       -0.3953
     14 O           -7.5064   -1.0150   -0.5637 O.3       1 MOL1       -0.3390
     15 C            0.0703    0.3782    0.3704 C.2       1 MOL1        0.2592
     16 N            1.3236    0.3616    0.0709 N.2       1 MOL1       -0.4050
     17 C            2.2358   -0.6225    0.7003 C.3       1 MOL1        0.0066
     18 C            3.6992   -0.5337    0.2895 C.ar      1 MOL1       -0.0376
     19 C            4.3783   -1.7319    0.2695 C.ar      1 MOL1       -0.0578
     20 C            5.7084   -1.7820   -0.0763 C.ar      1 MOL1        0.0436
     21 Cl           6.5413   -3.3075   -0.0985 Cl        1 MOL1       -0.1082
     22 C            6.3688   -0.6211   -0.4046 C.ar      1 MOL1       -0.0637
     23 C            5.6947    0.5780   -0.3842 C.ar      1 MOL1       -0.0779
     24 C            4.3605    0.6377   -0.0354 C.ar      1 MOL1       -0.0515
     25 C            3.6470    1.9847   -0.0282 C.3       1 MOL1       -0.0191
     26 N            4.5331    3.1361    0.1887 N.3       1 MOL1       -0.6086
     27 O           -0.5158   -0.4856    1.2399 O.3       1 MOL1       -0.3359
     28 H           -3.8442   -0.7229    1.4590 H         1 MOL1        0.0676
     29  H          -0.7490    0.6184   -2.3183 H         1 MOL1        0.0454
     30  H           0.4311    2.1110   -1.8442 H         1 MOL1        0.0454
     31  H          -1.4861    2.4196   -2.0982 H         1 MOL1        0.0454
     32  H          -0.2185    3.4900    0.1587 H         1 MOL1        0.0481
     33  H          -0.6049    2.3826    1.7402 H         1 MOL1        0.0481
     34  H          -2.6779    3.6592   -0.3713 H         1 MOL1        0.0474
     35  H          -2.6344    3.8133    1.5919 H         1 MOL1        0.0474
     36  H          -3.2953    1.4695    1.8943 H         1 MOL1        0.0593
     37  H          -4.2660    1.8821    0.2128 H         1 MOL1        0.0593
     38  H          -3.8104   -2.6428   -1.0818 H         1 MOL1        0.0481
     39  H          -3.6737   -3.0564    0.8300 H         1 MOL1        0.0481
     40  H          -6.1093   -3.3552   -0.8342 H         1 MOL1        0.0519
     41  H          -6.1214   -2.9451    1.1069 H         1 MOL1        0.0519
     42  H          -7.9780   -1.8999   -0.6427 H         1 MOL1        0.3296
     43  H           1.8180   -1.7151    0.4301 H         1 MOL1        0.0620
     44  H           2.1663   -0.4805    1.8894 H         1 MOL1        0.0620
     45  H           3.8978   -2.5755    0.5099 H         1 MOL1        0.0941
     46  H           7.3357   -0.6486   -0.6583 H         1 MOL1        0.0939
     47  H           6.1789    1.4193   -0.6249 H         1 MOL1        0.0908
     48  H           2.8197    1.9889    0.8421 H         1 MOL1        0.0594
     49  H           3.0915    2.1236   -1.0830 H         1 MOL1        0.0594
     50  H           5.2935    3.1766   -0.5003 H         1 MOL1        0.2740
     51  H           4.0170    4.0215    0.2499 H         1 MOL1        0.2740
     52  H           0.1439   -1.1482    1.6088 H         1 MOL1        0.3296
@<TRIPOS>BOND
     1      1      2 1 
     2      2      3 1 
     3      2     15 1 
     4      3      4 1 
     5      4      5 1 
     6      5      6 1 
     7      6      2 1 
     8      6      7 am
     9      7      8 2 
    10      7      9 1 
    11      9     10 1 
    12     10     11 1 
    13     11     12 1 
    14     12     13 2 
    15     12     14 1 
    16     13      9 1 
    17     15     16 2 
    18     15     27 1 
    19     16     17 1 
    20     17     18 1 
    21     18     19 ar
    22     19     20 ar
    23     20     21 1 
    24     20     22 ar
    25     22     23 ar
    26     23     24 ar
    27     24     18 ar
    28     24     25 1 
    29     25     26 1 
    30      1     29 1 
    31      1     30 1 
    32      1     31 1 
    33      3     32 1 
    34      3     33 1 
    35      4     34 1 
    36      4     35 1 
    37      5     36 1 
    38      5     37 1 
    39      9     28 1 
    40     10     38 1 
    41     10     39 1 
    42     11     40 1 
    43     11     41 1 
    44     14     42 1 
    45     17     43 1 
    46     17     44 1 
    47     19     45 1 
    48     22     46 1 
    49     23     47 1 
    50     25     48 1 
    51     25     49 1 
    52     26     50 1 
    53     26     51 1 
    54     27     52 1 
@<TRIPOS>SUBSTRUCTURE
     1 MOL1         1 MOLECULE          1 A
