# Molecule written by the XED library from Cresset
@<TRIPOS>MOLECULE
CHEMBL3953607
    52     54      1
SMALL
USER_CHARGES
@<TRIPOS>ATOM
      1 C           -6.5661   -1.8289   -0.6597 C.3       1 MOL1       -0.1113
      2 C           -5.3163   -1.7076    0.2261 C.3       1 MOL1       -0.0091
      3 C           -4.6197   -3.0183    0.6390 C.3       1 MOL1       -0.1113
      4 C           -5.3786   -0.6028    1.2925 C.3       1 MOL1       -0.0401
      5 C           -4.4724   -0.4248    0.0613 C.3       1 MOL1        0.0859
      6 O           -5.0012    0.5044   -0.8987 O.3       1 MOL1       -0.4233
      7 C           -2.9893   -0.4045    0.3991 C.2       1 MOL1        0.3022
      8 O           -2.3706   -1.4174    0.6951 O.2       1 MOL1       -0.4154
      9 N           -2.4120    0.8131    0.3317 N.am      1 MOL1       -0.3905
     10 C           -3.1059    2.0563   -0.0434 C.3       1 MOL1        0.0725
     11 C           -2.0875    3.1459    0.3024 C.3       1 MOL1       -0.0686
     12 C           -0.7441    2.4342    0.1360 C.3       1 MOL1       -0.0574
     13 C           -0.9875    1.0037    0.6458 C.3       1 MOL1        0.1589
     14 C           -0.0290    0.0437   -0.0189 C.2       1 MOL1        0.2581
     15 N            1.2114   -0.0261    0.3192 N.2       1 MOL1       -0.4054
     16 C            2.1470   -0.9455   -0.3737 C.3       1 MOL1        0.0066
     17 C            3.6177   -0.6152   -0.1476 C.ar      1 MOL1       -0.0376
     18 C            4.4894   -1.6825   -0.1627 C.ar      1 MOL1       -0.0578
     19 C            5.8398   -1.4913    0.0250 C.ar      1 MOL1        0.0436
     20 Cl           6.9295   -2.8472    0.0057 Cl        1 MOL1       -0.1082
     21 C            6.3270   -0.2214    0.2291 C.ar      1 MOL1       -0.0637
     22 C            5.4624    0.8468    0.2402 C.ar      1 MOL1       -0.0779
     23 C            4.1077    0.6651    0.0489 C.ar      1 MOL1       -0.0515
     24 C            3.1837    1.8807    0.0735 C.3       1 MOL1       -0.0191
     25 N            3.8343    3.1614   -0.2325 N.3       1 MOL1       -0.6086
     26 O           -0.6085   -0.7066   -0.9901 O.3       1 MOL1       -0.3363
     27 H           -0.8576    0.9644    1.8380 H         1 MOL1        0.0671
     28  H          -7.0268   -0.7422   -0.8804 H         1 MOL1        0.0438
     29  H          -7.3937   -2.4987   -0.1067 H         1 MOL1        0.0438
     30  H          -6.2655   -2.3567   -1.6948 H         1 MOL1        0.0438
     31  H          -3.9372   -3.3927   -0.2748 H         1 MOL1        0.0438
     32  H          -3.9365   -2.8609    1.6120 H         1 MOL1        0.0438
     33  H          -5.4503   -3.8533    0.8765 H         1 MOL1        0.0438
     34  H          -4.7624   -0.7528    2.3104 H         1 MOL1        0.0492
     35  H          -6.3330    0.1247    1.2823 H         1 MOL1        0.0492
     36  H          -5.6017    1.1861   -0.4638 H         1 MOL1        0.3291
     37  H          -4.1162    2.2359    0.5759 H         1 MOL1        0.0593
     38  H          -3.2880    2.0620   -1.2306 H         1 MOL1        0.0593
     39  H          -2.2127    4.0870   -0.4323 H         1 MOL1        0.0474
     40  H          -2.2189    3.4825    1.4463 H         1 MOL1        0.0474
     41  H           0.1252    2.9894    0.7479 H         1 MOL1        0.0479
     42  H          -0.4861    2.3994   -1.0354 H         1 MOL1        0.0479
     43  H           1.9140   -2.0638   -0.0023 H         1 MOL1        0.0620
     44  H           1.9333   -0.8868   -1.5531 H         1 MOL1        0.0620
     45  H           4.1369   -2.6062   -0.3118 H         1 MOL1        0.0941
     46  H           7.3067   -0.0758    0.3676 H         1 MOL1        0.0939
     47  H           5.8201    1.7690    0.3880 H         1 MOL1        0.0908
     48  H           2.3052    1.7189   -0.7284 H         1 MOL1        0.0594
     49  H           2.6920    1.9560    1.1651 H         1 MOL1        0.0594
     50  H           4.6261    3.3595    0.3911 H         1 MOL1        0.2740
     51  H           3.1640    3.9395   -0.2668 H         1 MOL1        0.2740
     52  H          -1.5722   -0.4592   -1.1274 H         1 MOL1        0.3296
@<TRIPOS>BOND
     1      1      2 1 
     2      2      3 1 
     3      2      4 1 
     4      4      5 1 
     5      5      2 1 
     6      5      6 1 
     7      5      7 1 
     8      7      8 2 
     9      7      9 am
    10      9     10 1 
    11     10     11 1 
    12     11     12 1 
    13     12     13 1 
    14     13      9 1 
    15     13     14 1 
    16     14     15 2 
    17     14     26 1 
    18     15     16 1 
    19     16     17 1 
    20     17     18 ar
    21     18     19 ar
    22     19     20 1 
    23     19     21 ar
    24     21     22 ar
    25     22     23 ar
    26     23     17 ar
    27     23     24 1 
    28     24     25 1 
    29      1     28 1 
    30      1     29 1 
    31      1     30 1 
    32      3     31 1 
    33      3     32 1 
    34      3     33 1 
    35      4     34 1 
    36      4     35 1 
    37      6     36 1 
    38     10     37 1 
    39     10     38 1 
    40     11     39 1 
    41     11     40 1 
    42     12     41 1 
    43     12     42 1 
    44     13     27 1 
    45     16     43 1 
    46     16     44 1 
    47     18     45 1 
    48     21     46 1 
    49     22     47 1 
    50     24     48 1 
    51     24     49 1 
    52     25     50 1 
    53     25     51 1 
    54     26     52 1 
@<TRIPOS>SUBSTRUCTURE
     1 MOL1         1 MOLECULE          1 A
