# Molecule written by the XED library from Cresset
@<TRIPOS>MOLECULE
CHEMBL50751
    38     39      1
SMALL
USER_CHARGES
@<TRIPOS>ATOM
      1 C           -3.8855   -2.7299   -0.0269 C.3       1 MOL1       -0.0439
      2 O           -3.3955   -1.3978    0.2103 O.3       1 MOL1       -0.1622
      3 C           -4.0756   -0.3319   -0.3338 C.2       1 MOL1        0.3313
      4 N           -5.3225   -0.3600   -0.7333 N.2       1 MOL1       -0.5668
      5 N           -3.3315    0.7974   -0.4441 N.am      1 MOL1       -0.2485
      6 S           -1.9807    1.0262    0.4934 S.3       1 MOL1        0.5531
      7 O           -2.6119    2.2566    0.1467 O.2       1 MOL1       -0.3088
      8 O           -2.1709    0.1645    1.6139 O.2       1 MOL1       -0.3088
      9 C           -0.2499    1.2438    0.0539 C.ar      1 MOL1        0.0783
     10 C            0.2200    2.4983   -0.1737 C.ar      1 MOL1       -0.0618
     11 C            1.5776    2.7011   -0.4325 C.ar      1 MOL1       -0.0989
     12 C            2.4415    1.6545   -0.4349 C.ar      1 MOL1       -0.0725
     13 C            1.9982    0.3379   -0.1978 C.ar      1 MOL1       -0.0222
     14 C            2.8877   -0.7747   -0.1715 C.ar      1 MOL1        0.0661
     15 C            2.3678   -2.0302   -0.0213 C.ar      1 MOL1       -0.1338
     16 C            0.9980   -2.2364    0.1405 C.ar      1 MOL1       -0.0858
     17 C            0.1461   -1.1833    0.1679 C.ar      1 MOL1       -0.1291
     18 C            0.6217    0.1303    0.0084 C.ar      1 MOL1        0.0006
     19 N            4.2777   -0.6107   -0.2871 N.pl3     1 MOL1       -0.1436
     20 C            5.1473   -1.7303   -0.6867 C.3       1 MOL1       -0.0668
     21 C            5.0186    0.3235    0.5795 C.3       1 MOL1       -0.0668
     22  H          -4.8531   -2.9731    0.6426 H         1 MOL1        0.0618
     23  H          -3.0096   -3.4966    0.2672 H         1 MOL1        0.0618
     24  H          -4.1163   -2.8869   -1.1945 H         1 MOL1        0.0618
     25  H          -5.7686   -1.2388   -0.5791 H         1 MOL1        0.2209
     26  H          -3.5869    1.3883   -1.0535 H         1 MOL1        0.2114
     27  H          -0.4039    3.2794   -0.1436 H         1 MOL1        0.0915
     28  H           1.9169    3.6257   -0.6051 H         1 MOL1        0.0906
     29  H           3.4124    1.8216   -0.6080 H         1 MOL1        0.0910
     30  H           2.9838   -2.8180   -0.0187 H         1 MOL1        0.0917
     31  H           0.6440   -3.1652    0.2481 H         1 MOL1        0.0906
     32  H          -0.8327   -1.3434    0.3013 H         1 MOL1        0.0910
     33  H           6.2201   -1.3235   -1.0395 H         1 MOL1        0.0545
     34  H           5.2841   -2.4710    0.2485 H         1 MOL1        0.0545
     35  H           4.6488   -2.3333   -1.5950 H         1 MOL1        0.0545
     36  H           5.7840   -0.2747    1.2838 H         1 MOL1        0.0545
     37  H           4.2776    0.9374    1.2976 H         1 MOL1        0.0545
     38  H           5.6375    1.0907   -0.1056 H         1 MOL1        0.0545
@<TRIPOS>BOND
     1      1      2 1 
     2      2      3 1 
     3      3      4 2 
     4      3      5 am
     5      5      6 1 
     6      6      7 2 
     7      6      8 2 
     8      6      9 1 
     9      9     10 ar
    10     10     11 ar
    11     11     12 ar
    12     12     13 ar
    13     13     14 ar
    14     14     15 ar
    15     14     19 1 
    16     15     16 ar
    17     16     17 ar
    18     17     18 ar
    19     18      9 ar
    20     18     13 ar
    21     19     20 1 
    22     19     21 1 
    23      1     22 1 
    24      1     23 1 
    25      1     24 1 
    26      4     25 1 
    27      5     26 1 
    28     10     27 1 
    29     11     28 1 
    30     12     29 1 
    31     15     30 1 
    32     16     31 1 
    33     17     32 1 
    34     20     33 1 
    35     20     34 1 
    36     20     35 1 
    37     21     36 1 
    38     21     37 1 
    39     21     38 1 
@<TRIPOS>SUBSTRUCTURE
     1 MOL1         1 MOLECULE          1 A
