# Molecule written by the XED library from Cresset
@<TRIPOS>MOLECULE
CHEMBL64579
    46     49      1
SMALL
USER_CHARGES
@<TRIPOS>ATOM
      1 N           -7.7177    0.9696   -0.0239 N.am      1 MOL1       -0.4220
      2 C           -6.7979   -0.0265   -0.0250 C.2       1 MOL1        0.1473
      3 N           -7.1413   -1.2859   -0.0387 N.2       1 MOL1       -0.5935
      4 C           -5.3422    0.2800   -0.0112 C.ar      1 MOL1       -0.0266
      5 C           -4.8440    1.5988    0.0249 C.ar      1 MOL1       -0.0765
      6 C           -3.5042    1.8633    0.0366 C.ar      1 MOL1       -0.0936
      7 C           -2.6384    0.7783    0.0114 C.ar      1 MOL1        0.0666
      8 N           -1.2768    0.8540    0.0158 N.pl3     1 MOL1       -0.1768
      9 C           -0.8567   -0.4611   -0.0249 C.ar      1 MOL1        0.0618
     10 C           -1.9095   -1.3024   -0.0494 C.ar      1 MOL1       -0.1486
     11 C           -3.0988   -0.5184   -0.0255 C.ar      1 MOL1       -0.0394
     12 C           -4.4626   -0.7811   -0.0358 C.ar      1 MOL1       -0.0593
     13 C            0.5536   -0.8266   -0.0520 C.ar      1 MOL1       -0.0045
     14 C            0.9001   -2.1502   -0.2929 C.ar      1 MOL1       -0.0931
     15 C            2.2123   -2.5426   -0.3510 C.ar      1 MOL1       -0.1016
     16 C            3.2156   -1.6180   -0.1701 C.ar      1 MOL1       -0.0809
     17 C            2.9122   -0.2942    0.0792 C.ar      1 MOL1        0.0662
     18 O            3.8665    0.6349    0.2705 O.3       1 MOL1       -0.1955
     19 C            5.1637    0.4662   -0.3510 C.3       1 MOL1       -0.0102
     20 C            5.8264    1.8357   -0.5619 C.3       1 MOL1       -0.0635
     21 C            7.3157    1.5043   -0.6937 C.3       1 MOL1       -0.0879
     22 C            7.5399    0.3965    0.3447 C.3       1 MOL1       -0.0879
     23 C            6.1857   -0.3275    0.4951 C.3       1 MOL1       -0.0635
     24 C            1.5802    0.0938    0.1441 C.ar      1 MOL1        0.0722
     25 O            1.2813    1.4002    0.4016 O.3       1 MOL1       -0.3778
     26 H           -0.7836    1.5807    0.0264 H         1 MOL1        0.2043
     27  H          -8.5773    0.7815   -0.0297 H         1 MOL1        0.2753
     28  H          -7.4671    1.8114   -0.0178 H         1 MOL1        0.2753
     29  H          -8.1338   -1.4092   -0.0473 H         1 MOL1        0.2200
     30  H          -5.4823    2.3665    0.0424 H         1 MOL1        0.0910
     31  H          -3.1601    2.8019    0.0619 H         1 MOL1        0.0919
     32  H          -1.8692   -2.3004   -0.0813 H         1 MOL1        0.0923
     33  H          -4.8001   -1.7221   -0.0618 H         1 MOL1        0.0914
     34  H           0.1832   -2.8316   -0.4326 H         1 MOL1        0.0910
     35  H           2.4408   -3.5000   -0.5279 H         1 MOL1        0.0906
     36  H           4.1694   -1.9091   -0.2188 H         1 MOL1        0.0924
     37  H           5.0613   -0.0315   -1.4395 H         1 MOL1        0.0667
     38  H           5.6737    2.5259    0.4086 H         1 MOL1        0.0482
     39  H           5.4040    2.3879   -1.5399 H         1 MOL1        0.0482
     40  H           7.5246    1.0689   -1.7922 H         1 MOL1        0.0460
     41  H           8.0071    2.4622   -0.4824 H         1 MOL1        0.0460
     42  H           7.8502    0.9046    1.3871 H         1 MOL1        0.0460
     43  H           8.4113   -0.3449   -0.0185 H         1 MOL1        0.0460
     44  H           5.8603   -0.3497    1.6509 H         1 MOL1        0.0482
     45  H           6.2813   -1.4546    0.0926 H         1 MOL1        0.0482
     46  H           2.1066    1.9592    0.5334 H         1 MOL1        0.3295
@<TRIPOS>BOND
     1      1      2 am
     2      2      3 2 
     3      2      4 1 
     4      4      5 ar
     5      5      6 ar
     6      6      7 ar
     7      7      8 ar
     8      8      9 ar
     9      9     10 ar
    10      9     13 1 
    11     10     11 ar
    12     11      7 ar
    13     11     12 ar
    14     12      4 ar
    15     13     14 ar
    16     14     15 ar
    17     15     16 ar
    18     16     17 ar
    19     17     18 1 
    20     17     24 ar
    21     18     19 1 
    22     19     20 1 
    23     20     21 1 
    24     21     22 1 
    25     22     23 1 
    26     23     19 1 
    27     24     13 ar
    28     24     25 1 
    29      1     27 1 
    30      1     28 1 
    31      3     29 1 
    32      5     30 1 
    33      6     31 1 
    34      8     26 1 
    35     10     32 1 
    36     12     33 1 
    37     14     34 1 
    38     15     35 1 
    39     16     36 1 
    40     19     37 1 
    41     20     38 1 
    42     20     39 1 
    43     21     40 1 
    44     21     41 1 
    45     22     42 1 
    46     22     43 1 
    47     23     44 1 
    48     23     45 1 
    49     25     46 1 
@<TRIPOS>SUBSTRUCTURE
     1 MOL1         1 MOLECULE          1 A
