# Molecule written by the XED library from Cresset
@<TRIPOS>MOLECULE
CHEMBL170063
    54     57      1
SMALL
USER_CHARGES
@<TRIPOS>ATOM
      1 N            8.4924   -2.4944    0.0206 N.am      1 MOL1       -0.4220
      2 C            8.1750   -1.1764    0.0107 C.2       1 MOL1        0.1472
      3 N            9.0891   -0.2440   -0.0031 N.2       1 MOL1       -0.5931
      4 C            6.7550   -0.7347    0.0110 C.ar      1 MOL1       -0.0267
      5 C            5.6739   -1.6375    0.0706 C.ar      1 MOL1       -0.0775
      6 C            4.3762   -1.2113    0.0646 C.ar      1 MOL1       -0.0916
      7 C            4.1480    0.1593   -0.0056 C.ar      1 MOL1        0.0622
      8 C            5.1911    1.0563   -0.0650 C.ar      1 MOL1       -0.0421
      9 C            4.5465    2.3280   -0.1377 C.ar      1 MOL1       -0.1645
     10 C            3.2333    2.1054   -0.1198 C.ar      1 MOL1       -0.0014
     11 N            2.9199    0.7695   -0.0330 N.pl3     1 MOL1       -0.1815
     12 C            1.5909    0.1295   -0.0149 C.3       1 MOL1        0.1475
     13 C            0.3934    1.0641    0.0039 C.2       1 MOL1        0.3186
     14 O            0.5052    2.2318    0.3502 O.2       1 MOL1       -0.4176
     15 N           -0.7677    0.5167   -0.4169 N.am      1 MOL1       -0.3984
     16 C           -1.9014    1.3863   -0.7693 C.3       1 MOL1        0.0721
     17 C           -3.1596    1.0336    0.0455 C.3       1 MOL1       -0.0691
     18 C           -3.5190   -0.4630   -0.1121 C.3       1 MOL1       -0.0503
     19 C           -4.6891   -0.8575    0.8245 C.3       1 MOL1       -0.0463
     20 C           -6.0919   -0.3561    0.4968 C.ar      1 MOL1       -0.0583
     21 C           -6.4378    0.9583    0.7274 C.ar      1 MOL1       -0.1007
     22 C           -7.7082    1.4082    0.4483 C.ar      1 MOL1       -0.0848
     23 C           -8.6506    0.5417   -0.0528 C.ar      1 MOL1       -0.0714
     24 C           -8.3189   -0.7767   -0.2755 C.ar      1 MOL1        0.1076
     25 F           -9.2428   -1.6249   -0.7491 F         1 MOL1       -0.1462
     26 C           -7.0410   -1.2203   -0.0054 C.ar      1 MOL1       -0.0675
     27 C           -2.2886   -1.3307    0.2449 C.3       1 MOL1       -0.0691
     28 C           -1.0263   -0.9329   -0.5524 C.3       1 MOL1        0.0721
     29 C            6.5075    0.6194   -0.0539 C.ar      1 MOL1       -0.0584
     30  H           9.3346   -2.7489    0.0270 H         1 MOL1        0.2753
     31  H           7.8628   -3.1069    0.0191 H         1 MOL1        0.2753
     32  H          10.0158   -0.6207   -0.0033 H         1 MOL1        0.2200
     33  H           5.8541   -2.6186    0.1183 H         1 MOL1        0.0910
     34  H           3.6178   -1.8619    0.1063 H         1 MOL1        0.0919
     35  H           4.9957    3.2193   -0.1957 H         1 MOL1        0.0919
     36  H           2.5515    2.8349   -0.1653 H         1 MOL1        0.0997
     37  H           1.5550   -0.5769    0.9551 H         1 MOL1        0.0657
     38  H           1.5544   -0.5379   -1.0119 H         1 MOL1        0.0657
     39  H          -1.6195    2.5366   -0.5768 H         1 MOL1        0.0593
     40  H          -2.1441    1.2390   -1.9351 H         1 MOL1        0.0593
     41  H          -4.0609    1.7130   -0.3609 H         1 MOL1        0.0476
     42  H          -2.9533    1.2871    1.2003 H         1 MOL1        0.0476
     43  H          -3.8238   -0.6788   -1.2528 H         1 MOL1        0.0490
     44  H          -4.4221   -0.4845    1.9333 H         1 MOL1        0.0495
     45  H          -4.7426   -2.0567    0.8629 H         1 MOL1        0.0495
     46  H          -5.7604    1.5913    1.1019 H         1 MOL1        0.0908
     47  H          -7.9472    2.3647    0.6144 H         1 MOL1        0.0906
     48  H          -9.5751    0.8668   -0.2516 H         1 MOL1        0.0931
     49  H          -6.8042   -2.1780   -0.1681 H         1 MOL1        0.0933
     50  H          -2.5261   -2.4854    0.0187 H         1 MOL1        0.0476
     51  H          -2.0558   -1.2013    1.4148 H         1 MOL1        0.0476
     52  H          -0.1511   -1.6342   -0.1314 H         1 MOL1        0.0593
     53  H          -1.1993   -1.1830   -1.7135 H         1 MOL1        0.0593
     54  H           7.2619    1.2740   -0.0963 H         1 MOL1        0.0914
@<TRIPOS>BOND
     1      1      2 am
     2      2      3 2 
     3      2      4 1 
     4      4      5 ar
     5      5      6 ar
     6      6      7 ar
     7      7      8 ar
     8      8      9 ar
     9      8     29 ar
    10      9     10 ar
    11     10     11 ar
    12     11      7 ar
    13     11     12 1 
    14     12     13 1 
    15     13     14 2 
    16     13     15 am
    17     15     16 1 
    18     16     17 1 
    19     17     18 1 
    20     18     19 1 
    21     18     27 1 
    22     19     20 1 
    23     20     21 ar
    24     21     22 ar
    25     22     23 ar
    26     23     24 ar
    27     24     25 1 
    28     24     26 ar
    29     26     20 ar
    30     27     28 1 
    31     28     15 1 
    32     29      4 ar
    33      1     30 1 
    34      1     31 1 
    35      3     32 1 
    36      5     33 1 
    37      6     34 1 
    38      9     35 1 
    39     10     36 1 
    40     12     37 1 
    41     12     38 1 
    42     16     39 1 
    43     16     40 1 
    44     17     41 1 
    45     17     42 1 
    46     18     43 1 
    47     19     44 1 
    48     19     45 1 
    49     21     46 1 
    50     22     47 1 
    51     23     48 1 
    52     26     49 1 
    53     27     50 1 
    54     27     51 1 
    55     28     52 1 
    56     28     53 1 
    57     29     54 1 
@<TRIPOS>SUBSTRUCTURE
     1 MOL1         1 MOLECULE          1 A
