# Molecule written by the XED library from Cresset
@<TRIPOS>MOLECULE
CHEMBL94336
    52     54      1
SMALL
USER_CHARGES
@<TRIPOS>ATOM
      1 N            7.1344    2.8942    0.1279 N.am      1 MOL1       -0.4216
      2 C            5.7951    2.8855   -0.0835 C.2       1 MOL1        0.1561
      3 N            5.1171    3.9819   -0.2817 N.2       1 MOL1       -0.5779
      4 C            5.0418    1.6020   -0.1066 C.ar      1 MOL1       -0.0026
      5 C            5.5959    0.4024    0.3193 C.ar      1 MOL1       -0.0581
      6 C            4.8699   -0.7593    0.2784 C.ar      1 MOL1       -0.0722
      7 C            3.5613   -0.7662   -0.1804 C.ar      1 MOL1       -0.0127
      8 C            2.8676   -2.0721   -0.2257 C.2       1 MOL1       -0.0303
      9 C            1.5470   -2.3091   -0.0120 C.2       1 MOL1       -0.0280
     10 C            1.3287   -3.7863   -0.2725 C.3       1 MOL1       -0.0457
     11 C           -0.1059   -4.2913   -0.1334 C.3       1 MOL1       -0.0863
     12 C           -1.0084   -3.4859   -1.0757 C.3       1 MOL1       -0.0863
     13 C           -1.6697   -2.3552   -0.2869 C.3       1 MOL1       -0.0457
     14 C           -0.7843   -1.2309    0.2228 C.2       1 MOL1       -0.0280
     15 C           -1.3474   -0.0085    0.4008 C.2       1 MOL1       -0.0303
     16 C           -2.7867    0.3296    0.2863 C.ar      1 MOL1       -0.0127
     17 C           -3.1214    1.5783   -0.2164 C.ar      1 MOL1       -0.0722
     18 C           -4.4335    1.9602   -0.3321 C.ar      1 MOL1       -0.0581
     19 C           -5.4626    1.1133    0.0545 C.ar      1 MOL1       -0.0026
     20 C           -5.1269   -0.1276    0.5757 C.ar      1 MOL1       -0.0581
     21 C           -3.8159   -0.5098    0.6918 C.ar      1 MOL1       -0.0722
     22 C           -6.8855    1.5380   -0.0783 C.2       1 MOL1        0.1561
     23 N           -7.8196    0.6760   -0.3778 N.2       1 MOL1       -0.5779
     24 N           -7.1971    2.8390    0.1139 N.am      1 MOL1       -0.4216
     25 C            0.6606   -1.2359    0.4267 C.2       1 MOL1        0.1799
     26 O            1.1026   -0.2743    1.0402 O.2       1 MOL1       -0.3945
     27 C            3.0081    0.4293   -0.6155 C.ar      1 MOL1       -0.0722
     28 C            3.7346    1.5915   -0.5716 C.ar      1 MOL1       -0.0581
     29  H           7.5758    3.6547    0.1595 H         1 MOL1        0.2753
     30  H           7.5761    2.1413    0.2293 H         1 MOL1        0.2753
     31  H           5.6957    4.7972   -0.2512 H         1 MOL1        0.2200
     32  H           6.5345    0.3787    0.6602 H         1 MOL1        0.0910
     33  H           5.2903   -1.6138    0.5835 H         1 MOL1        0.0910
     34  H           3.4439   -2.8517   -0.4434 H         1 MOL1        0.0912
     35  H           2.0055   -4.4202    0.4905 H         1 MOL1        0.0492
     36  H           1.6835   -4.0402   -1.3912 H         1 MOL1        0.0492
     37  H          -0.1105   -5.4434   -0.4717 H         1 MOL1        0.0463
     38  H          -0.4475   -4.2270    1.0156 H         1 MOL1        0.0463
     39  H          -1.8892   -4.1984   -1.4739 H         1 MOL1        0.0463
     40  H          -0.4136   -3.0458   -2.0210 H         1 MOL1        0.0463
     41  H          -2.4973   -1.8985   -1.0254 H         1 MOL1        0.0492
     42  H          -2.2234   -2.8654    0.6462 H         1 MOL1        0.0492
     43  H          -0.7370    0.7390    0.6217 H         1 MOL1        0.0912
     44  H          -2.3967    2.2073   -0.4986 H         1 MOL1        0.0910
     45  H          -4.6513    2.8637   -0.7005 H         1 MOL1        0.0910
     46  H          -5.8455   -0.7526    0.8777 H         1 MOL1        0.0910
     47  H          -3.6028   -1.4042    1.0778 H         1 MOL1        0.0910
     48  H          -7.4681   -0.2482   -0.5239 H         1 MOL1        0.2200
     49  H          -6.5743    3.4257    0.3213 H         1 MOL1        0.2753
     50  H          -8.0335    3.1025    0.0343 H         1 MOL1        0.2753
     51  H           2.0704    0.4444   -0.9621 H         1 MOL1        0.0910
     52  H           3.3160    2.4444   -0.8830 H         1 MOL1        0.0910
@<TRIPOS>BOND
     1      1      2 am
     2      2      3 2 
     3      2      4 1 
     4      4      5 ar
     5      5      6 ar
     6      6      7 ar
     7      7      8 1 
     8      7     27 ar
     9      8      9 2 
    10      9     10 1 
    11      9     25 1 
    12     10     11 1 
    13     11     12 1 
    14     12     13 1 
    15     13     14 1 
    16     14     15 2 
    17     14     25 1 
    18     15     16 1 
    19     16     17 ar
    20     17     18 ar
    21     18     19 ar
    22     19     20 ar
    23     19     22 1 
    24     20     21 ar
    25     21     16 ar
    26     22     23 2 
    27     22     24 am
    28     25     26 2 
    29     27     28 ar
    30     28      4 ar
    31      1     29 1 
    32      1     30 1 
    33      3     31 1 
    34      5     32 1 
    35      6     33 1 
    36      8     34 1 
    37     10     35 1 
    38     10     36 1 
    39     11     37 1 
    40     11     38 1 
    41     12     39 1 
    42     12     40 1 
    43     13     41 1 
    44     13     42 1 
    45     15     43 1 
    46     17     44 1 
    47     18     45 1 
    48     20     46 1 
    49     21     47 1 
    50     23     48 1 
    51     24     49 1 
    52     24     50 1 
    53     27     51 1 
    54     28     52 1 
@<TRIPOS>SUBSTRUCTURE
     1 MOL1         1 MOLECULE          1 A
