# Molecule written by the XED library from Cresset
@<TRIPOS>MOLECULE
CHEMBL111575
    51     54      1
SMALL
USER_CHARGES
@<TRIPOS>ATOM
      1 N           -8.7837    1.5419   -0.0008 N.am      1 MOL1       -0.4212
      2 C           -7.9894    0.4433   -0.0081 C.2       1 MOL1        0.1553
      3 N           -8.4806   -0.7652   -0.0090 N.2       1 MOL1       -0.5812
      4 C           -6.5056    0.5757   -0.0154 C.ar      1 MOL1       -0.0044
      5 C           -5.8460    1.8263    0.0039 C.ar      1 MOL1       -0.0652
      6 C           -4.4959    1.9104   -0.0016 C.ar      1 MOL1       -0.0773
      7 C           -3.7135    0.7409   -0.0260 C.ar      1 MOL1       -0.0112
      8 C           -2.3128    0.7985   -0.0265 C.ar      1 MOL1       -0.0453
      9 C           -1.5517   -0.3400   -0.0451 C.ar      1 MOL1        0.0086
     10 C           -2.2190   -1.5885   -0.0713 C.ar      1 MOL1       -0.0652
     11 C           -3.5688   -1.6721   -0.0719 C.ar      1 MOL1       -0.0757
     12 C           -4.3521   -0.5038   -0.0467 C.ar      1 MOL1       -0.0126
     13 C           -5.7529   -0.5641   -0.0408 C.ar      1 MOL1       -0.0411
     14 C           -0.0660   -0.2184   -0.0309 C.2       1 MOL1        0.3240
     15 O            0.3798    0.9246   -0.0872 O.2       1 MOL1       -0.4094
     16 N            0.7185   -1.3218    0.0604 N.am      1 MOL1       -0.2240
     17 C            2.1223   -1.3966    0.1214 C.ar      1 MOL1        0.0709
     18 C            2.7290   -2.6043    0.4226 C.ar      1 MOL1       -0.1186
     19 C            4.0977   -2.6983    0.5029 C.ar      1 MOL1       -0.0839
     20 C            4.8804   -1.5892    0.2841 C.ar      1 MOL1       -0.1095
     21 C            4.2999   -0.3685   -0.0252 C.ar      1 MOL1        0.0560
     22 O            5.0137    0.7460   -0.2505 O.3       1 MOL1       -0.1966
     23 C            6.3886    0.8300    0.1952 C.3       1 MOL1       -0.0102
     24 C            6.7923    2.2954    0.4064 C.3       1 MOL1       -0.0635
     25 C            8.3264    2.2604    0.4422 C.3       1 MOL1       -0.0879
     26 C            8.7333    1.0624   -0.4382 C.3       1 MOL1       -0.0879
     27 C            7.4224    0.3635   -0.8458 C.3       1 MOL1       -0.0635
     28 C            2.9236   -0.2909   -0.1086 C.ar      1 MOL1       -0.0944
     29  H          -9.6596    1.4577    0.0064 H         1 MOL1        0.2753
     30  H          -8.4339    2.3477   -0.0035 H         1 MOL1        0.2753
     31  H          -9.4807   -0.7692   -0.0040 H         1 MOL1        0.2200
     32  H          -6.3814    2.6691    0.0226 H         1 MOL1        0.0910
     33  H          -4.0526    2.8067    0.0127 H         1 MOL1        0.0910
     34  H          -1.8595    1.6897   -0.0096 H         1 MOL1        0.0914
     35  H          -1.6884   -2.4339   -0.0896 H         1 MOL1        0.0910
     36  H          -4.0120   -2.5684   -0.0897 H         1 MOL1        0.0910
     37  H          -6.2078   -1.4545   -0.0547 H         1 MOL1        0.0914
     38  H           0.3024   -2.0938    0.1081 H         1 MOL1        0.2056
     39  H           2.1663   -3.4145    0.5866 H         1 MOL1        0.0919
     40  H           4.5254   -3.5749    0.7235 H         1 MOL1        0.0906
     41  H           5.8741   -1.6676    0.3492 H         1 MOL1        0.0924
     42  H           6.5670    0.2718    1.2433 H         1 MOL1        0.0667
     43  H           6.4484    2.9518   -0.5381 H         1 MOL1        0.0482
     44  H           6.3312    2.7456    1.4185 H         1 MOL1        0.0482
     45  H           8.7832    3.2919    0.0319 H         1 MOL1        0.0460
     46  H           8.6810    2.0798    1.5751 H         1 MOL1        0.0460
     47  H           9.3419    1.4267   -1.4072 H         1 MOL1        0.0460
     48  H           9.4148    0.3036    0.1952 H         1 MOL1        0.0460
     49  H           7.5540   -0.8286   -0.8613 H         1 MOL1        0.0482
     50  H           7.0910    0.7514   -1.9331 H         1 MOL1        0.0482
     51  H           2.4996    0.5847   -0.3352 H         1 MOL1        0.0937
@<TRIPOS>BOND
     1      1      2 am
     2      2      3 2 
     3      2      4 1 
     4      4      5 ar
     5      5      6 ar
     6      6      7 ar
     7      7      8 ar
     8      8      9 ar
     9      9     10 ar
    10      9     14 1 
    11     10     11 ar
    12     11     12 ar
    13     12      7 ar
    14     12     13 ar
    15     13      4 ar
    16     14     15 2 
    17     14     16 am
    18     16     17 1 
    19     17     18 ar
    20     18     19 ar
    21     19     20 ar
    22     20     21 ar
    23     21     22 1 
    24     21     28 ar
    25     22     23 1 
    26     23     24 1 
    27     24     25 1 
    28     25     26 1 
    29     26     27 1 
    30     27     23 1 
    31     28     17 ar
    32      1     29 1 
    33      1     30 1 
    34      3     31 1 
    35      5     32 1 
    36      6     33 1 
    37      8     34 1 
    38     10     35 1 
    39     11     36 1 
    40     13     37 1 
    41     16     38 1 
    42     18     39 1 
    43     19     40 1 
    44     20     41 1 
    45     23     42 1 
    46     24     43 1 
    47     24     44 1 
    48     25     45 1 
    49     25     46 1 
    50     26     47 1 
    51     26     48 1 
    52     27     49 1 
    53     27     50 1 
    54     28     51 1 
@<TRIPOS>SUBSTRUCTURE
     1 MOL1         1 MOLECULE          1 A
