# Molecule written by the XED library from Cresset
@<TRIPOS>MOLECULE
CHEMBL127909
    42     45      1
SMALL
USER_CHARGES
@<TRIPOS>ATOM
      1 N            5.7393   -2.9864    0.0122 N.am      1 MOL1       -0.4228
      2 C            5.9108   -1.6404    0.0196 C.2       1 MOL1        0.1492
      3 N            7.1023   -1.1068    0.0151 N.2       1 MOL1       -0.5982
      4 C            4.7352   -0.7226    0.0297 C.ar      1 MOL1       -0.0034
      5 C            3.4452   -1.2192    0.0397 C.ar      1 MOL1       -0.0556
      6 C            2.3797   -0.3299    0.0379 C.ar      1 MOL1       -0.0466
      7 C            0.9597   -0.4442    0.0290 C.ar      1 MOL1       -0.1486
      8 C            0.4374    0.7975    0.0082 C.ar      1 MOL1        0.0564
      9 N            1.4423    1.7500    0.0176 N.pl3     1 MOL1       -0.1785
     10 C            2.5986    1.0283    0.0295 C.ar      1 MOL1        0.0714
     11 C            3.8791    1.5587    0.0251 C.ar      1 MOL1       -0.0753
     12 C            4.9275    0.6787    0.0245 C.ar      1 MOL1        0.1265
     13 F            6.1652    1.1925    0.0159 F         1 MOL1       -0.1423
     14 C           -0.9779    1.1546   -0.0422 C.ar      1 MOL1       -0.0052
     15 C           -1.3246    2.4861   -0.2110 C.ar      1 MOL1       -0.0785
     16 C           -2.6375    2.8770   -0.2902 C.ar      1 MOL1       -0.1042
     17 C           -3.6377    1.9409   -0.2123 C.ar      1 MOL1       -0.0804
     18 C           -3.3508    0.5957   -0.0443 C.ar      1 MOL1       -0.0154
     19 C           -2.0100    0.2171    0.0589 C.ar      1 MOL1        0.0812
     20 O           -1.6984   -1.0894    0.2778 O.3       1 MOL1       -0.3775
     21 C           -4.4717   -0.3423   -0.0081 C.ar      1 MOL1       -0.0180
     22 C           -5.7142    0.0387    0.4803 C.ar      1 MOL1       -0.0849
     23 C           -6.7727   -0.8375    0.4961 C.ar      1 MOL1       -0.0897
     24 C           -6.6158   -2.1191    0.0222 C.ar      1 MOL1       -0.0938
     25 C           -5.3945   -2.5192   -0.4677 C.ar      1 MOL1       -0.0897
     26 C           -4.3389   -1.6396   -0.4825 C.ar      1 MOL1       -0.0849
     27 H            1.3617    2.6255    0.0184 H         1 MOL1        0.2043
     28  H           6.4365   -3.5233    0.0056 H         1 MOL1        0.2753
     29  H           4.9352   -3.3379    0.0132 H         1 MOL1        0.2753
     30  H           7.8283   -1.7946    0.0067 H         1 MOL1        0.2200
     31  H           3.2710   -2.2019    0.0437 H         1 MOL1        0.0914
     32  H           0.4436   -1.3000    0.0255 H         1 MOL1        0.0923
     33  H           4.0312    2.5470    0.0195 H         1 MOL1        0.0944
     34  H          -0.6098    3.1794   -0.2818 H         1 MOL1        0.0910
     35  H          -2.8650    3.8431   -0.4128 H         1 MOL1        0.0906
     36  H          -4.5881    2.2390   -0.2887 H         1 MOL1        0.0910
     37  H          -2.4375   -1.5706    0.7600 H         1 MOL1        0.3295
     38  H          -5.8460    0.9649    0.8310 H         1 MOL1        0.0910
     39  H          -7.6590   -0.5428    0.8530 H         1 MOL1        0.0906
     40  H          -7.3863   -2.7564    0.0335 H         1 MOL1        0.0906
     41  H          -5.2759   -3.4497   -0.8143 H         1 MOL1        0.0906
     42  H          -3.4577   -1.9409   -0.8464 H         1 MOL1        0.0910
@<TRIPOS>BOND
     1      1      2 am
     2      2      3 2 
     3      2      4 1 
     4      4      5 ar
     5      5      6 ar
     6      6      7 ar
     7      7      8 ar
     8      8      9 ar
     9      8     14 1 
    10      9     10 ar
    11     10      6 ar
    12     10     11 ar
    13     11     12 ar
    14     12      4 ar
    15     12     13 1 
    16     14     15 ar
    17     15     16 ar
    18     16     17 ar
    19     17     18 ar
    20     18     19 ar
    21     18     21 1 
    22     19     14 ar
    23     19     20 1 
    24     21     22 ar
    25     22     23 ar
    26     23     24 ar
    27     24     25 ar
    28     25     26 ar
    29     26     21 ar
    30      1     28 1 
    31      1     29 1 
    32      3     30 1 
    33      5     31 1 
    34      7     32 1 
    35      9     27 1 
    36     11     33 1 
    37     15     34 1 
    38     16     35 1 
    39     17     36 1 
    40     20     37 1 
    41     22     38 1 
    42     23     39 1 
    43     24     40 1 
    44     25     41 1 
    45     26     42 1 
@<TRIPOS>SUBSTRUCTURE
     1 MOL1         1 MOLECULE          1 A
