# Molecule written by the XED library from Cresset
@<TRIPOS>MOLECULE
CHEMBL542661
    49     51      1
SMALL
USER_CHARGES
@<TRIPOS>ATOM
      1 C            5.4260    1.1838    1.4727 C.3       1 MOL1       -0.0794
      2 C            5.2526    0.6220    0.0482 C.3       1 MOL1        0.0703
      3 O            5.9456    1.4962   -0.8542 O.3       1 MOL1       -0.4249
      4 C            5.8642   -0.7895   -0.0810 C.3       1 MOL1       -0.0460
      5 C            5.1226   -1.8290    0.7809 C.3       1 MOL1       -0.0645
      6 C            3.6116   -1.5190    0.8478 C.3       1 MOL1        0.0923
      7 C            2.7441   -2.6727    0.3280 C.3       1 MOL1       -0.0650
      8 C            1.3733   -2.0187    0.1203 C.3       1 MOL1       -0.0557
      9 C            1.6859   -0.6198   -0.4395 C.3       1 MOL1        0.1606
     10 N            3.0807   -0.4409   -0.0045 N.am      1 MOL1       -0.3881
     11 C            3.7967    0.6388   -0.3804 C.2       1 MOL1        0.2985
     12 O            3.3513    1.5648   -1.0439 O.2       1 MOL1       -0.4154
     13 C            0.7692    0.4454    0.1192 C.2       1 MOL1        0.3242
     14 O            1.1630    1.2963    0.9048 O.2       1 MOL1       -0.4176
     15 N           -0.4832    0.3550   -0.3568 N.am      1 MOL1       -0.3832
     16 C           -1.4887    1.3353    0.0804 C.3       1 MOL1        0.1157
     17 C           -2.9280    0.8443    0.0353 C.ar      1 MOL1       -0.0267
     18 C           -3.9098    1.7122   -0.3893 C.ar      1 MOL1       -0.0825
     19 C           -5.2259    1.3187   -0.4194 C.ar      1 MOL1       -0.0574
     20 C           -5.5919    0.0421   -0.0213 C.ar      1 MOL1       -0.0078
     21 C           -4.5954   -0.8272    0.3956 C.ar      1 MOL1       -0.0574
     22 C           -3.2802   -0.4296    0.4273 C.ar      1 MOL1       -0.0825
     23 C           -7.0177   -0.3968   -0.0394 C.2       1 MOL1        0.1549
     24 N           -7.9779    0.4298    0.2752 N.2       1 MOL1       -0.5838
     25 N           -7.3019   -1.6725   -0.3816 N.am      1 MOL1       -0.4206
     26 H            3.2816   -1.3027    1.9814 H         1 MOL1        0.0618
     27 H            1.6396   -0.6331   -1.6386 H         1 MOL1        0.0678
     28  H           4.8599    0.4917    2.2715 H         1 MOL1        0.0460
     29  H           6.5954    1.2207    1.7387 H         1 MOL1        0.0460
     30  H           4.9727    2.2936    1.5219 H         1 MOL1        0.0460
     31  H           6.9287    1.5341   -0.6441 H         1 MOL1        0.3291
     32  H           7.0222   -0.7619    0.2323 H         1 MOL1        0.0487
     33  H           5.7808   -1.1250   -1.2303 H         1 MOL1        0.0487
     34  H           5.3303   -2.9230    0.3324 H         1 MOL1        0.0476
     35  H           5.5811   -1.7880    1.8898 H         1 MOL1        0.0476
     36  H           2.6901   -3.5783    1.1134 H         1 MOL1        0.0476
     37  H           3.1606   -3.0520   -0.7317 H         1 MOL1        0.0476
     38  H           0.6866   -2.6541   -0.6311 H         1 MOL1        0.0479
     39  H           0.8330   -1.9039    1.1856 H         1 MOL1        0.0479
     40  H          -0.6988   -0.2744   -0.9349 H         1 MOL1        0.2040
     41  H          -1.3708    2.3107   -0.6095 H         1 MOL1        0.0620
     42  H          -1.2376    1.6444    1.2124 H         1 MOL1        0.0620
     43  H          -3.6625    2.6381   -0.6751 H         1 MOL1        0.0908
     44  H          -5.9222    1.9629   -0.7342 H         1 MOL1        0.0910
     45  H          -4.8373   -1.7544    0.6813 H         1 MOL1        0.0910
     46  H          -2.5751   -1.0673    0.7381 H         1 MOL1        0.0908
     47  H          -7.6442    1.3354    0.5367 H         1 MOL1        0.2200
     48  H          -6.6577   -2.2344   -0.5927 H         1 MOL1        0.2753
     49  H          -8.1392   -1.9438   -0.3957 H         1 MOL1        0.2753
@<TRIPOS>BOND
     1      1      2 1 
     2      2      3 1 
     3      2      4 1 
     4      4      5 1 
     5      5      6 1 
     6      6      7 1 
     7      7      8 1 
     8      8      9 1 
     9      9     10 1 
    10      9     13 1 
    11     10      6 1 
    12     10     11 am
    13     11      2 1 
    14     11     12 2 
    15     13     14 2 
    16     13     15 am
    17     15     16 1 
    18     16     17 1 
    19     17     18 ar
    20     18     19 ar
    21     19     20 ar
    22     20     21 ar
    23     20     23 1 
    24     21     22 ar
    25     22     17 ar
    26     23     24 2 
    27     23     25 am
    28      1     28 1 
    29      1     29 1 
    30      1     30 1 
    31      3     31 1 
    32      4     32 1 
    33      4     33 1 
    34      5     34 1 
    35      5     35 1 
    36      6     26 1 
    37      7     36 1 
    38      7     37 1 
    39      8     38 1 
    40      8     39 1 
    41      9     27 1 
    42     15     40 1 
    43     16     41 1 
    44     16     42 1 
    45     18     43 1 
    46     19     44 1 
    47     21     45 1 
    48     22     46 1 
    49     24     47 1 
    50     25     48 1 
    51     25     49 1 
@<TRIPOS>SUBSTRUCTURE
     1 MOL1         1 MOLECULE          1 A
