# Molecule written by the XED library from Cresset
@<TRIPOS>MOLECULE
CHEMBL135723
    36     37      1
SMALL
USER_CHARGES
@<TRIPOS>ATOM
      1 N           -6.7132    1.6402   -0.1646 N.am      1 MOL1       -0.4064
      2 C           -6.0607    0.4702    0.0238 C.2       1 MOL1        0.1673
      3 N           -6.6887   -0.6808    0.0779 N.2       1 MOL1       -0.6504
      4 N           -4.7168    0.5447    0.1592 N.am      1 MOL1       -0.2409
      5 C           -3.9527   -0.6721    0.4725 C.3       1 MOL1        0.0000
      6 C           -2.4522   -0.5600    0.2364 C.ar      1 MOL1       -0.0506
      7 C           -1.7199    0.5321    0.6498 C.ar      1 MOL1       -0.0841
      8 C           -0.3598    0.5832    0.4362 C.ar      1 MOL1       -0.0848
      9 C            0.2908   -0.4561   -0.1941 C.ar      1 MOL1       -0.0479
     10 C           -0.4477   -1.5454   -0.6046 C.ar      1 MOL1       -0.0848
     11 C           -1.8050   -1.5990   -0.3914 C.ar      1 MOL1       -0.0841
     12 C            1.7947   -0.4768   -0.4668 C.3       1 MOL1        0.0479
     13 C            2.5180   -1.4864    0.4339 C.3       1 MOL1       -0.0582
     14 C            3.9149   -1.6326   -0.1635 C.3       1 MOL1       -0.0298
     15 C            4.6197   -0.3025   -0.0695 C.2       1 MOL1        0.0138
     16 C            5.8624   -0.1693    0.3658 C.2       1 MOL1       -0.0525
     17 I            6.8463    1.8165    0.4899 I         1 MOL1       -0.0657
     18 O            3.8768    0.8244   -0.4286 O.3       1 MOL1       -0.1075
     19 C            2.5210    0.8604   -0.4664 C.2       1 MOL1        0.3053
     20 O            1.9525    1.9360   -0.5322 O.2       1 MOL1       -0.3700
     21  H          -7.5886    1.6563   -0.2553 H         1 MOL1        0.2755
     22  H          -6.2641    2.3964   -0.1946 H         1 MOL1        0.2755
     23  H          -7.6774   -0.5794   -0.0351 H         1 MOL1        0.2204
     24  H          -4.3016    1.3180    0.0816 H         1 MOL1        0.2764
     25  H          -4.1357   -0.9453    1.6265 H         1 MOL1        0.0598
     26  H          -4.4056   -1.5599   -0.1973 H         1 MOL1        0.0598
     27  H          -2.1796    1.2926    1.1085 H         1 MOL1        0.0908
     28  H           0.1595    1.3821    0.7389 H         1 MOL1        0.0908
     29  H           0.0105   -2.3070   -1.0621 H         1 MOL1        0.0908
     30  H          -2.3239   -2.3997   -0.6921 H         1 MOL1        0.0908
     31  H           1.8759   -0.8623   -1.6011 H         1 MOL1        0.0589
     32  H           1.9590   -2.5491    0.4166 H         1 MOL1        0.0470
     33  H           2.5798   -1.0794    1.5609 H         1 MOL1        0.0470
     34  H           4.5333   -2.4810    0.4171 H         1 MOL1        0.0509
     35  H           3.8299   -1.9525   -1.3167 H         1 MOL1        0.0509
     36  H           6.3702   -0.9739    0.6345 H         1 MOL1        0.0979
@<TRIPOS>BOND
     1      1      2 am
     2      2      3 2 
     3      2      4 am
     4      4      5 1 
     5      5      6 1 
     6      6      7 ar
     7      7      8 ar
     8      8      9 ar
     9      9     10 ar
    10      9     12 1 
    11     10     11 ar
    12     11      6 ar
    13     12     13 1 
    14     13     14 1 
    15     14     15 1 
    16     15     16 2 
    17     15     18 1 
    18     16     17 1 
    19     18     19 1 
    20     19     12 1 
    21     19     20 2 
    22      1     21 1 
    23      1     22 1 
    24      3     23 1 
    25      4     24 1 
    26      5     25 1 
    27      5     26 1 
    28      7     27 1 
    29      8     28 1 
    30     10     29 1 
    31     11     30 1 
    32     12     31 1 
    33     13     32 1 
    34     13     33 1 
    35     14     34 1 
    36     14     35 1 
    37     16     36 1 
@<TRIPOS>SUBSTRUCTURE
     1 MOL1         1 MOLECULE          1 A
