# Molecule written by the XED library from Cresset
@<TRIPOS>MOLECULE
CHEMBL321510
    41     44      1
SMALL
USER_CHARGES
@<TRIPOS>ATOM
      1 N           -7.3501    1.2519    0.0000 N.am      1 MOL1       -0.4220
      2 C           -6.4862    0.2075    0.0000 C.2       1 MOL1        0.1474
      3 N           -6.8978   -1.0315    0.0000 N.2       1 MOL1       -0.5934
      4 C           -5.0156    0.4324   -0.0001 C.ar      1 MOL1       -0.0264
      5 C           -4.4302    1.7163    0.0000 C.ar      1 MOL1       -0.0750
      6 C           -3.0745    1.8927    0.0000 C.ar      1 MOL1       -0.0934
      7 C           -2.2814    0.7524   -0.0001 C.ar      1 MOL1        0.0682
      8 N           -0.9169    0.7319   -0.0001 N.pl3     1 MOL1       -0.1762
      9 C           -0.5954   -0.6127    0.0000 C.ar      1 MOL1        0.0584
     10 C           -1.7043   -1.3765   -0.0001 C.ar      1 MOL1       -0.1414
     11 C           -2.8318   -0.5091   -0.0001 C.ar      1 MOL1       -0.0389
     12 C           -4.2084   -0.6835   -0.0001 C.ar      1 MOL1       -0.0575
     13 C            0.7793   -1.0929    0.0000 C.ar      1 MOL1       -0.0115
     14 C            1.0256   -2.4565    0.0001 C.ar      1 MOL1       -0.0804
     15 C            2.3104   -2.9347    0.0002 C.ar      1 MOL1       -0.0888
     16 C            3.3698   -2.0619    0.0002 C.ar      1 MOL1       -0.0828
     17 C            3.1776   -0.6854    0.0000 C.ar      1 MOL1       -0.0205
     18 C            1.8648   -0.2307    0.0000 C.ar      1 MOL1       -0.0713
     19 C            4.3203    0.2345    0.0000 C.ar      1 MOL1       -0.0214
     20 C            5.6298   -0.2334   -0.0002 C.ar      1 MOL1       -0.0813
     21 C            6.7044    0.6225   -0.0002 C.ar      1 MOL1       -0.0896
     22 C            6.5034    1.9818    0.0000 C.ar      1 MOL1       -0.0905
     23 C            5.2201    2.4744    0.0002 C.ar      1 MOL1       -0.0896
     24 C            4.1484    1.6137    0.0002 C.ar      1 MOL1       -0.0813
     25 H           -0.3699    1.4206    0.0000 H         1 MOL1        0.2043
     26  H          -8.2188    1.1106    0.0001 H         1 MOL1        0.2753
     27  H          -7.0535    2.0787    0.0001 H         1 MOL1        0.2753
     28  H          -7.8954   -1.1010    0.0000 H         1 MOL1        0.2200
     29  H          -5.0173    2.5242    0.0000 H         1 MOL1        0.0910
     30  H          -2.6698    2.8072    0.0000 H         1 MOL1        0.0919
     31  H          -1.7369   -2.3751   -0.0001 H         1 MOL1        0.0923
     32  H          -4.6063   -1.6009   -0.0001 H         1 MOL1        0.0914
     33  H           0.2630   -3.1015    0.0001 H         1 MOL1        0.0910
     34  H           2.4758   -3.9209    0.0002 H         1 MOL1        0.0906
     35  H           4.2928   -2.4380    0.0002 H         1 MOL1        0.0910
     36  H           1.6895    0.7502   -0.0002 H         1 MOL1        0.0914
     37  H           5.8084   -1.2141   -0.0004 H         1 MOL1        0.0910
     38  H           7.6346    0.2553   -0.0003 H         1 MOL1        0.0906
     39  H           7.2840    2.6069    0.0000 H         1 MOL1        0.0906
     40  H           5.0660    3.4624    0.0003 H         1 MOL1        0.0906
     41  H           3.2291    2.0004    0.0004 H         1 MOL1        0.0910
@<TRIPOS>BOND
     1      1      2 am
     2      2      3 2 
     3      2      4 1 
     4      4      5 ar
     5      5      6 ar
     6      6      7 ar
     7      7      8 ar
     8      8      9 ar
     9      9     10 ar
    10      9     13 1 
    11     10     11 ar
    12     11      7 ar
    13     11     12 ar
    14     12      4 ar
    15     13     14 ar
    16     14     15 ar
    17     15     16 ar
    18     16     17 ar
    19     17     18 ar
    20     17     19 1 
    21     18     13 ar
    22     19     20 ar
    23     20     21 ar
    24     21     22 ar
    25     22     23 ar
    26     23     24 ar
    27     24     19 ar
    28      1     26 1 
    29      1     27 1 
    30      3     28 1 
    31      5     29 1 
    32      6     30 1 
    33      8     25 1 
    34     10     31 1 
    35     12     32 1 
    36     14     33 1 
    37     15     34 1 
    38     16     35 1 
    39     18     36 1 
    40     20     37 1 
    41     21     38 1 
    42     22     39 1 
    43     23     40 1 
    44     24     41 1 
@<TRIPOS>SUBSTRUCTURE
     1 MOL1         1 MOLECULE          1 A
