# Molecule written by the XED library from Cresset
@<TRIPOS>MOLECULE
CHEMBL303978
    50     53      1
SMALL
USER_CHARGES
@<TRIPOS>ATOM
      1 N            6.0361   -3.3922    0.0269 N.am      1 MOL1       -0.4236
      2 C            6.4206   -2.0908    0.0281 C.2       1 MOL1        0.1483
      3 N            7.6823   -1.7532    0.0395 N.2       1 MOL1       -0.5957
      4 C            5.4069   -0.9991    0.0123 C.ar      1 MOL1        0.0010
      5 C            4.0514   -1.2840    0.0448 C.ar      1 MOL1       -0.0587
      6 C            3.1723   -0.2195    0.0195 C.ar      1 MOL1        0.0634
      7 N            1.7838   -0.2845    0.0409 N.pl3     1 MOL1       -0.1632
      8 C            1.3828    0.9918   -0.0125 C.ar      1 MOL1        0.2270
      9 N            2.4291    1.8239   -0.0597 N.ar      1 MOL1       -0.3995
     10 C            3.5812    1.0805   -0.0380 C.ar      1 MOL1        0.0368
     11 C            4.9393    1.3965   -0.0650 C.ar      1 MOL1       -0.0664
     12 C            5.8239    0.3558   -0.0385 C.ar      1 MOL1        0.1227
     13 F            7.1283    0.6599   -0.0642 F         1 MOL1       -0.1436
     14 C           -0.0038    1.4027   -0.0260 C.ar      1 MOL1        0.0056
     15 C           -0.2503    2.7580   -0.2015 C.ar      1 MOL1       -0.0741
     16 C           -1.5323    3.2374   -0.2381 C.ar      1 MOL1       -0.1007
     17 C           -2.5977    2.3748   -0.0936 C.ar      1 MOL1       -0.0664
     18 C           -2.3904    1.0209    0.0951 C.ar      1 MOL1        0.0702
     19 O           -3.4029    0.1504    0.2631 O.3       1 MOL1       -0.1984
     20 C           -4.7615    0.5978    0.0563 C.3       1 MOL1       -0.0186
     21 C           -5.7945   -0.5037    0.3648 C.3       1 MOL1       -0.0319
     22 C           -7.2074    0.0869    0.1846 C.3       1 MOL1       -0.0769
     23 C           -8.2719   -0.9958    0.4465 C.3       1 MOL1       -0.0784
     24 C           -8.0029   -2.2157   -0.4575 C.3       1 MOL1       -0.0533
     25 N           -6.6535   -2.7518   -0.2134 N.3       1 MOL1       -0.4321
     26 C           -5.6460   -1.7344   -0.5587 C.3       1 MOL1       -0.0442
     27 C           -1.0863    0.5397    0.1230 C.ar      1 MOL1        0.0913
     28 O           -0.8693   -0.7932    0.3018 O.3       1 MOL1       -0.3753
     29 H            1.2869   -1.0085    0.0743 H         1 MOL1        0.2049
     30  H           6.6383   -4.0334    0.0404 H         1 MOL1        0.2753
     31  H           5.1860   -3.6105    0.0111 H         1 MOL1        0.2753
     32  H           8.2894   -2.5479    0.0484 H         1 MOL1        0.2200
     33  H           3.7117   -2.2218    0.0839 H         1 MOL1        0.0923
     34  H           5.2528    2.3454   -0.1032 H         1 MOL1        0.0944
     35  H           0.5158    3.3928   -0.3062 H         1 MOL1        0.0910
     36  H          -1.6962    4.2150   -0.3692 H         1 MOL1        0.0906
     37  H          -3.5270    2.7398   -0.1238 H         1 MOL1        0.0924
     38  H          -5.0029    1.5006    0.8099 H         1 MOL1        0.0645
     39  H          -4.8969    0.9712   -1.0762 H         1 MOL1        0.0645
     40  H          -5.6605   -0.8544    1.5048 H         1 MOL1        0.0517
     41  H          -7.3681    1.0024    0.9436 H         1 MOL1        0.0463
     42  H          -7.3213    0.4812   -0.9432 H         1 MOL1        0.0463
     43  H          -9.3619   -0.5523    0.2126 H         1 MOL1        0.0471
     44  H          -8.2164   -1.3352    1.5961 H         1 MOL1        0.0471
     45  H          -8.8118   -3.0675   -0.2120 H         1 MOL1        0.0566
     46  H          -8.1168   -1.8927   -1.6076 H         1 MOL1        0.0566
     47  H          -6.5368   -3.1244    0.7368 H         1 MOL1        0.2748
     48  H          -4.5572   -2.2168   -0.4099 H         1 MOL1        0.0568
     49  H          -5.7694   -1.3964   -1.7035 H         1 MOL1        0.0568
     50  H          -1.7288   -1.3090    0.3785 H         1 MOL1        0.3295
@<TRIPOS>BOND
     1      1      2 am
     2      2      3 2 
     3      2      4 1 
     4      4      5 ar
     5      5      6 ar
     6      6      7 ar
     7      7      8 ar
     8      8      9 ar
     9      8     14 1 
    10      9     10 ar
    11     10      6 ar
    12     10     11 ar
    13     11     12 ar
    14     12      4 ar
    15     12     13 1 
    16     14     15 ar
    17     15     16 ar
    18     16     17 ar
    19     17     18 ar
    20     18     19 1 
    21     18     27 ar
    22     19     20 1 
    23     20     21 1 
    24     21     22 1 
    25     22     23 1 
    26     23     24 1 
    27     24     25 1 
    28     25     26 1 
    29     26     21 1 
    30     27     14 ar
    31     27     28 1 
    32      1     30 1 
    33      1     31 1 
    34      3     32 1 
    35      5     33 1 
    36      7     29 1 
    37     11     34 1 
    38     15     35 1 
    39     16     36 1 
    40     17     37 1 
    41     20     38 1 
    42     20     39 1 
    43     21     40 1 
    44     22     41 1 
    45     22     42 1 
    46     23     43 1 
    47     23     44 1 
    48     24     45 1 
    49     24     46 1 
    50     25     47 1 
    51     26     48 1 
    52     26     49 1 
    53     28     50 1 
@<TRIPOS>SUBSTRUCTURE
     1 MOL1         1 MOLECULE          1 A
