# Molecule written by the XED library from Cresset
@<TRIPOS>MOLECULE
CHEMBL318526
    45     48      1
SMALL
USER_CHARGES
@<TRIPOS>ATOM
      1 C           -1.4462   -1.8375   -0.9591 C.3       1 MOL1       -0.0471
      2 O           -1.4968   -1.0487    0.2483 O.3       1 MOL1       -0.1970
      3 C           -1.7531    0.2559    0.1092 C.ar      1 MOL1        0.0916
      4 C           -3.0883    0.6963    0.0779 C.ar      1 MOL1       -0.0146
      5 C           -3.3243    2.0536   -0.0719 C.ar      1 MOL1       -0.0792
      6 C           -2.2953    2.9499   -0.1823 C.ar      1 MOL1       -0.1042
      7 C           -0.9997    2.5092   -0.1407 C.ar      1 MOL1       -0.0772
      8 C           -0.6840    1.1664    0.0083 C.ar      1 MOL1       -0.0042
      9 C            0.7477    0.8380    0.0352 C.ar      1 MOL1        0.0620
     10 C            1.3157   -0.3854    0.0682 C.ar      1 MOL1       -0.1488
     11 C            2.7315   -0.2318    0.0570 C.ar      1 MOL1       -0.0394
     12 C            3.8239   -1.0898    0.0602 C.ar      1 MOL1       -0.0593
     13 C            5.1042   -0.5638    0.0252 C.ar      1 MOL1       -0.0267
     14 C            5.2383    0.8435   -0.0027 C.ar      1 MOL1       -0.0765
     15 C            4.1711    1.6953   -0.0019 C.ar      1 MOL1       -0.0936
     16 C            2.9066    1.1292    0.0255 C.ar      1 MOL1        0.0665
     17 N            1.7288    1.8156    0.0181 N.pl3     1 MOL1       -0.1768
     18 C            6.3305   -1.4329    0.0118 C.2       1 MOL1        0.1473
     19 N            6.2612   -2.7390    0.0032 N.2       1 MOL1       -0.5935
     20 N            7.5574   -0.8613    0.0036 N.am      1 MOL1       -0.4220
     21 C           -4.2794   -0.1544    0.1935 C.ar      1 MOL1       -0.0179
     22 C           -5.6125    0.2133   -0.0453 C.ar      1 MOL1       -0.0849
     23 C           -6.6466   -0.7222   -0.0859 C.ar      1 MOL1       -0.0897
     24 C           -6.4306   -2.0927    0.0587 C.ar      1 MOL1       -0.0938
     25 C           -5.1487   -2.5519    0.3076 C.ar      1 MOL1       -0.0897
     26 C           -4.3307   -1.4867    0.5299 C.ar      1 MOL1       -0.0849
     27 H            1.6289    2.6882    0.0106 H         1 MOL1        0.2043
     28  H          -0.5779   -1.4303   -1.6812 H         1 MOL1        0.0618
     29  H          -1.2097   -2.9776   -0.6686 H         1 MOL1        0.0618
     30  H          -2.5003   -1.7903   -1.5316 H         1 MOL1        0.0618
     31  H          -4.2601    2.3983   -0.0980 H         1 MOL1        0.0910
     32  H          -2.4895    3.9248   -0.2914 H         1 MOL1        0.0906
     33  H          -0.2701    3.1837   -0.2232 H         1 MOL1        0.0910
     34  H           0.8305   -1.2583    0.0862 H         1 MOL1        0.0923
     35  H           3.6628   -2.0725    0.0839 H         1 MOL1        0.0914
     36  H           6.1499    1.2465   -0.0262 H         1 MOL1        0.0910
     37  H           4.2970    2.6871   -0.0234 H         1 MOL1        0.0919
     38  H           5.3349   -3.0988    0.0045 H         1 MOL1        0.2200
     39  H           7.6606    0.0092    0.0128 H         1 MOL1        0.2753
     40  H           8.2703   -1.3770   -0.0115 H         1 MOL1        0.2753
     41  H          -5.8346    1.1685   -0.2303 H         1 MOL1        0.0910
     42  H          -7.5759   -0.4005   -0.2671 H         1 MOL1        0.0906
     43  H          -7.1857   -2.7380   -0.0569 H         1 MOL1        0.0906
     44  H          -4.8634   -3.5102    0.2902 H         1 MOL1        0.0906
     45  H          -4.9842   -1.2160    1.2376 H         1 MOL1        0.0910
@<TRIPOS>BOND
     1      1      2 1 
     2      2      3 1 
     3      3      4 ar
     4      4      5 ar
     5      4     21 1 
     6      5      6 ar
     7      6      7 ar
     8      7      8 ar
     9      8      3 ar
    10      8      9 1 
    11      9     10 ar
    12     10     11 ar
    13     11     12 ar
    14     12     13 ar
    15     13     14 ar
    16     13     18 1 
    17     14     15 ar
    18     15     16 ar
    19     16     11 ar
    20     16     17 ar
    21     17      9 ar
    22     18     19 2 
    23     18     20 am
    24     21     22 ar
    25     22     23 ar
    26     23     24 ar
    27     24     25 ar
    28     25     26 ar
    29     26     21 ar
    30      1     28 1 
    31      1     29 1 
    32      1     30 1 
    33      5     31 1 
    34      6     32 1 
    35      7     33 1 
    36     10     34 1 
    37     12     35 1 
    38     14     36 1 
    39     15     37 1 
    40     17     27 1 
    41     19     38 1 
    42     20     39 1 
    43     20     40 1 
    44     22     41 1 
    45     23     42 1 
    46     24     43 1 
    47     25     44 1 
    48     26     45 1 
@<TRIPOS>SUBSTRUCTURE
     1 MOL1         1 MOLECULE          1 A
