# Molecule written by the XED library from Cresset
@<TRIPOS>MOLECULE
CHEMBL195461
    39     41      1
SMALL
USER_CHARGES
@<TRIPOS>ATOM
      1 N           -5.4816   -2.8298    0.0609 N.pl3     1 MOL1       -0.4277
      2 C           -5.0252   -1.5357   -0.0155 C.ar      1 MOL1        0.1343
      3 C           -5.8861   -0.4762    0.2420 C.ar      1 MOL1       -0.1067
      4 C           -5.4204    0.8037    0.1676 C.ar      1 MOL1       -0.0797
      5 C           -4.0862    1.0375   -0.1671 C.ar      1 MOL1        0.0345
      6 Cl          -3.4840    2.6657   -0.2607 Cl        1 MOL1       -0.1071
      7 C           -3.2596   -0.0099   -0.4187 C.ar      1 MOL1        0.0530
      8 C           -1.8003    0.2126   -0.7952 C.3       1 MOL1        0.0439
      9 C           -0.8480   -0.7080   -0.0652 C.2       1 MOL1        0.2993
     10 O           -1.2169   -1.5268    0.7663 O.2       1 MOL1       -0.4204
     11 N            0.4274   -0.5155   -0.4399 N.am      1 MOL1       -0.3836
     12 C            1.4910   -1.2956    0.2105 C.3       1 MOL1        0.1163
     13 C            2.9235   -0.7675    0.1020 C.ar      1 MOL1       -0.0308
     14 C            3.8761   -1.7586    0.0124 C.ar      1 MOL1       -0.0553
     15 C            5.2180   -1.4611   -0.0817 C.ar      1 MOL1        0.0333
     16 Cl           6.3941   -2.7395   -0.1823 Cl        1 MOL1       -0.1082
     17 C            5.6281   -0.1488   -0.0943 C.ar      1 MOL1       -0.0613
     18 C            4.6946    0.8520   -0.0055 C.ar      1 MOL1       -0.0758
     19 C            3.3439    0.5640    0.1036 C.ar      1 MOL1        0.0724
     20 N            2.4467    1.6338    0.2131 N.pl3     1 MOL1        0.1489
     21 C            1.3404    1.8248    1.0021 C.ar      1 MOL1        0.2070
     22 N            0.8343    3.0136    0.8084 N.ar      1 MOL1       -0.2749
     23 N            1.6066    3.6048   -0.0906 N.ar      1 MOL1       -0.2010
     24 N            2.5440    2.8031   -0.4254 N.2       1 MOL1       -0.0743
     25 N           -3.7304   -1.2929   -0.3412 N.pl3     1 MOL1        0.1495
     26 O           -2.9834   -2.2459   -0.5637 O.co2     1 MOL1       -0.4548
     27  H          -6.3212   -2.9934    0.2711 H         1 MOL1        0.2754
     28  H          -4.9337   -3.4993   -0.0994 H         1 MOL1        0.2754
     29  H          -6.8408   -0.6510    0.4816 H         1 MOL1        0.0929
     30  H          -6.0337    1.5718    0.3525 H         1 MOL1        0.0939
     31  H          -1.6773    0.0366   -1.9752 H         1 MOL1        0.0571
     32  H          -1.4863    1.3429   -0.5423 H         1 MOL1        0.0571
     33  H           0.6293    0.0715   -1.0646 H         1 MOL1        0.2040
     34  H           1.4236   -2.3917   -0.2753 H         1 MOL1        0.0620
     35  H           1.2215   -1.3954    1.3753 H         1 MOL1        0.0620
     36  H           3.5910   -2.7169    0.0177 H         1 MOL1        0.0941
     37  H           6.6004    0.0743   -0.1652 H         1 MOL1        0.0939
     38  H           4.9948    1.8059   -0.0126 H         1 MOL1        0.0919
     39  H           0.9705    1.1461    1.6362 H         1 MOL1        0.1098
@<TRIPOS>BOND
     1      1      2 1 
     2      2      3 ar
     3      3      4 ar
     4      4      5 ar
     5      5      6 1 
     6      5      7 ar
     7      7      8 1 
     8      7     25 ar
     9      8      9 1 
    10      9     10 2 
    11      9     11 am
    12     11     12 1 
    13     12     13 1 
    14     13     14 ar
    15     14     15 ar
    16     15     16 1 
    17     15     17 ar
    18     17     18 ar
    19     18     19 ar
    20     19     13 ar
    21     19     20 1 
    22     20     21 ar
    23     21     22 ar
    24     22     23 ar
    25     23     24 ar
    26     24     20 ar
    27     25      2 ar
    28     25     26 1 
    29      1     27 1 
    30      1     28 1 
    31      3     29 1 
    32      4     30 1 
    33      8     31 1 
    34      8     32 1 
    35     11     33 1 
    36     12     34 1 
    37     12     35 1 
    38     14     36 1 
    39     17     37 1 
    40     18     38 1 
    41     21     39 1 
@<TRIPOS>SUBSTRUCTURE
     1 MOL1         1 MOLECULE          1 A
