# Molecule written by the XED library from Cresset
@<TRIPOS>MOLECULE
CHEMBL302913
    45     48      1
SMALL
USER_CHARGES
@<TRIPOS>ATOM
      1 N            5.8434   -2.9500   -0.0289 N.am      1 MOL1       -0.4236
      2 C            6.0544   -1.6095   -0.0248 C.2       1 MOL1        0.1483
      3 N            7.2619   -1.1115   -0.0427 N.2       1 MOL1       -0.5957
      4 C            4.9059   -0.6601    0.0037 C.ar      1 MOL1        0.0010
      5 C            3.6002   -1.1209   -0.0512 C.ar      1 MOL1       -0.0587
      6 C            2.5850   -0.1842   -0.0155 C.ar      1 MOL1        0.0634
      7 N            1.2175   -0.4332   -0.0569 N.pl3     1 MOL1       -0.1632
      8 C            0.6468    0.7756    0.0175 C.ar      1 MOL1        0.2270
      9 N            1.5720    1.7389    0.0957 N.ar      1 MOL1       -0.3995
     10 C            2.8145    1.1572    0.0738 C.ar      1 MOL1        0.0368
     11 C            4.1193    1.6480    0.1243 C.ar      1 MOL1       -0.0664
     12 C            5.1368    0.7369    0.0873 C.ar      1 MOL1        0.1227
     13 F            6.3881    1.2147    0.1351 F         1 MOL1       -0.1436
     14 C           -0.7835    0.9896    0.0249 C.ar      1 MOL1        0.0056
     15 C           -1.2267    2.2886    0.2355 C.ar      1 MOL1       -0.0741
     16 C           -2.5658    2.5746    0.2751 C.ar      1 MOL1       -0.1007
     17 C           -3.4931    1.5674    0.1054 C.ar      1 MOL1       -0.0664
     18 C           -3.0870    0.2662   -0.1130 C.ar      1 MOL1        0.0704
     19 O           -3.9607   -0.7421   -0.2955 O.3       1 MOL1       -0.1955
     20 C           -5.2691   -0.6803    0.3210 C.3       1 MOL1       -0.0102
     21 C           -5.8027   -2.0974    0.5765 C.3       1 MOL1       -0.0635
     22 C           -7.3071   -1.8851    0.7750 C.3       1 MOL1       -0.0879
     23 C           -7.6758   -0.7694   -0.2179 C.3       1 MOL1       -0.0879
     24 C           -6.3604   -0.0411   -0.5631 C.3       1 MOL1       -0.0635
     25 C           -1.7274   -0.0170   -0.1581 C.ar      1 MOL1        0.0913
     26 O           -1.3193   -1.2980   -0.3805 O.3       1 MOL1       -0.3753
     27 H            0.8225   -1.2161   -0.1105 H         1 MOL1        0.2049
     28  H           6.5244   -3.5067   -0.0543 H         1 MOL1        0.2753
     29  H           5.0296   -3.2780   -0.0040 H         1 MOL1        0.2753
     30  H           7.9665   -1.8211   -0.0606 H         1 MOL1        0.2200
     31  H           3.3898   -2.0946   -0.1142 H         1 MOL1        0.0923
     32  H           4.3033    2.6288    0.1858 H         1 MOL1        0.0944
     33  H          -0.5604    3.0232    0.3639 H         1 MOL1        0.0910
     34  H          -2.8720    3.5140    0.4289 H         1 MOL1        0.0906
     35  H          -4.4672    1.7832    0.1405 H         1 MOL1        0.0924
     36  H          -5.2319   -0.1256    1.3853 H         1 MOL1        0.0667
     37  H          -5.6391   -2.7864   -0.3933 H         1 MOL1        0.0482
     38  H          -5.2953   -2.6025    1.5396 H         1 MOL1        0.0482
     39  H          -7.4931   -1.5112    1.9000 H         1 MOL1        0.0460
     40  H          -7.9285   -2.8900    0.5665 H         1 MOL1        0.0460
     41  H          -8.1466   -1.2569   -1.2089 H         1 MOL1        0.0460
     42  H          -8.4737   -0.0200    0.2753 H         1 MOL1        0.0460
     43  H          -6.0982   -0.2085   -1.7232 H         1 MOL1        0.0482
     44  H          -6.4665    1.1339   -0.3454 H         1 MOL1        0.0482
     45  H          -2.0946   -1.9272   -0.4980 H         1 MOL1        0.3295
@<TRIPOS>BOND
     1      1      2 am
     2      2      3 2 
     3      2      4 1 
     4      4      5 ar
     5      5      6 ar
     6      6      7 ar
     7      7      8 ar
     8      8      9 ar
     9      8     14 1 
    10      9     10 ar
    11     10      6 ar
    12     10     11 ar
    13     11     12 ar
    14     12      4 ar
    15     12     13 1 
    16     14     15 ar
    17     15     16 ar
    18     16     17 ar
    19     17     18 ar
    20     18     19 1 
    21     18     25 ar
    22     19     20 1 
    23     20     21 1 
    24     21     22 1 
    25     22     23 1 
    26     23     24 1 
    27     24     20 1 
    28     25     14 ar
    29     25     26 1 
    30      1     28 1 
    31      1     29 1 
    32      3     30 1 
    33      5     31 1 
    34      7     27 1 
    35     11     32 1 
    36     15     33 1 
    37     16     34 1 
    38     17     35 1 
    39     20     36 1 
    40     21     37 1 
    41     21     38 1 
    42     22     39 1 
    43     22     40 1 
    44     23     41 1 
    45     23     42 1 
    46     24     43 1 
    47     24     44 1 
    48     26     45 1 
@<TRIPOS>SUBSTRUCTURE
     1 MOL1         1 MOLECULE          1 A
