# Molecule written by the XED library from Cresset
@<TRIPOS>MOLECULE
CHEMBL150138
    50     52      1
SMALL
USER_CHARGES
@<TRIPOS>ATOM
      1 N            4.4960   -2.2973   -0.6980 N.am      1 MOL1       -0.3850
      2 C            3.6235   -3.2211   -0.2497 C.2       1 MOL1        0.3133
      3 O            3.9948   -4.2901    0.2291 O.2       1 MOL1       -0.4120
      4 C            2.1578   -2.9743   -0.3140 C.ar      1 MOL1        0.0090
      5 C            1.2907   -3.8400    0.3408 C.ar      1 MOL1       -0.0595
      6 C           -0.0652   -3.6455    0.3072 C.ar      1 MOL1       -0.0717
      7 C           -0.6045   -2.5694   -0.3793 C.ar      1 MOL1       -0.0155
      8 C           -2.0750   -2.4280   -0.4106 C.2       1 MOL1       -0.0294
      9 C           -2.7891   -1.2975   -0.1676 C.2       1 MOL1       -0.0297
     10 C           -4.2351   -1.6239   -0.4953 C.3       1 MOL1       -0.0457
     11 C           -5.1869   -0.4598   -0.7778 C.3       1 MOL1       -0.0863
     12 C           -5.2332    0.4793    0.4327 C.3       1 MOL1       -0.0863
     13 C           -4.2367    1.6191    0.2149 C.3       1 MOL1       -0.0457
     14 C           -2.7719    1.2316    0.2198 C.2       1 MOL1       -0.0297
     15 C           -2.0588    2.3878    0.2223 C.2       1 MOL1       -0.0294
     16 C           -0.5897    2.5378    0.2701 C.ar      1 MOL1       -0.0155
     17 C            0.2062    2.0045    1.2723 C.ar      1 MOL1       -0.0717
     18 C            1.5588    2.2284    1.2803 C.ar      1 MOL1       -0.0595
     19 C            2.1646    3.0042    0.2997 C.ar      1 MOL1        0.0090
     20 C            1.3595    3.5440   -0.6958 C.ar      1 MOL1       -0.0595
     21 C            0.0079    3.3178   -0.7076 C.ar      1 MOL1       -0.0717
     22 C            3.6327    3.2363    0.3392 C.2       1 MOL1        0.3133
     23 O            4.3042    2.4862    1.0433 O.2       1 MOL1       -0.4120
     24 N            4.1848    4.2396   -0.3708 N.am      1 MOL1       -0.3850
     25 C           -2.1151   -0.0719    0.2604 C.2       1 MOL1        0.1797
     26 O           -0.9854   -0.1690    0.7080 O.2       1 MOL1       -0.3951
     27 C            0.2515   -1.7078   -1.0501 C.ar      1 MOL1       -0.0717
     28 C            1.6077   -1.9061   -1.0142 C.ar      1 MOL1       -0.0595
     29  H           5.3604   -2.4628   -0.6681 H         1 MOL1        0.2026
     30  H           4.2160   -1.5278   -1.0167 H         1 MOL1        0.2026
     31  H           1.6628   -4.6195    0.8447 H         1 MOL1        0.0910
     32  H          -0.6702   -4.2849    0.7817 H         1 MOL1        0.0910
     33  H          -2.5769   -3.2563   -0.6267 H         1 MOL1        0.0912
     34  H          -4.6857   -2.2616    0.4159 H         1 MOL1        0.0492
     35  H          -4.2866   -2.2987   -1.4871 H         1 MOL1        0.0492
     36  H          -6.2776   -0.9311   -0.9486 H         1 MOL1        0.0463
     37  H          -4.8562    0.1036   -1.7848 H         1 MOL1        0.0463
     38  H          -6.3261    0.9696    0.5105 H         1 MOL1        0.0463
     39  H          -4.9939   -0.0982    1.4576 H         1 MOL1        0.0463
     40  H          -4.4266    2.3949    1.1114 H         1 MOL1        0.0492
     41  H          -4.4995    2.1726   -0.8174 H         1 MOL1        0.0492
     42  H          -2.5668    3.2380    0.1520 H         1 MOL1        0.0912
     43  H          -0.2091    1.4521    1.9950 H         1 MOL1        0.0910
     44  H           2.1182    1.8312    2.0078 H         1 MOL1        0.0910
     45  H           1.7658    4.1057   -1.4152 H         1 MOL1        0.0910
     46  H          -0.5544    3.7226   -1.4287 H         1 MOL1        0.0910
     47  H           3.6850    4.7852   -0.8456 H         1 MOL1        0.2026
     48  H           5.0573    4.3574   -0.3544 H         1 MOL1        0.2026
     49  H          -0.1235   -0.9355   -1.5628 H         1 MOL1        0.0910
     50  H           2.2036   -1.2713   -1.5035 H         1 MOL1        0.0910
@<TRIPOS>BOND
     1      1      2 am
     2      2      3 2 
     3      2      4 1 
     4      4      5 ar
     5      5      6 ar
     6      6      7 ar
     7      7      8 1 
     8      7     27 ar
     9      8      9 2 
    10      9     10 1 
    11      9     25 1 
    12     10     11 1 
    13     11     12 1 
    14     12     13 1 
    15     13     14 1 
    16     14     15 2 
    17     14     25 1 
    18     15     16 1 
    19     16     17 ar
    20     17     18 ar
    21     18     19 ar
    22     19     20 ar
    23     19     22 1 
    24     20     21 ar
    25     21     16 ar
    26     22     23 2 
    27     22     24 am
    28     25     26 2 
    29     27     28 ar
    30     28      4 ar
    31      1     29 1 
    32      1     30 1 
    33      5     31 1 
    34      6     32 1 
    35      8     33 1 
    36     10     34 1 
    37     10     35 1 
    38     11     36 1 
    39     11     37 1 
    40     12     38 1 
    41     12     39 1 
    42     13     40 1 
    43     13     41 1 
    44     15     42 1 
    45     17     43 1 
    46     18     44 1 
    47     20     45 1 
    48     21     46 1 
    49     24     47 1 
    50     24     48 1 
    51     27     49 1 
    52     28     50 1 
@<TRIPOS>SUBSTRUCTURE
     1 MOL1         1 MOLECULE          1 A
