# Molecule written by the XED library from Cresset
@<TRIPOS>MOLECULE
CHEMBL325022
    52     54      1
SMALL
USER_CHARGES
@<TRIPOS>ATOM
      1 N            4.1968    4.0220   -0.3497 N.am      1 MOL1       -0.4205
      2 C            3.4270    2.9064   -0.3263 C.2       1 MOL1        0.1555
      3 N            2.1348    2.9523   -0.4956 N.2       1 MOL1       -0.5838
      4 C            4.0373    1.5653   -0.1026 C.ar      1 MOL1       -0.0056
      5 C            5.3776    1.3996    0.2220 C.ar      1 MOL1       -0.0494
      6 C            5.9004    0.1443    0.4204 C.ar      1 MOL1       -0.0878
      7 C            5.0970   -0.9624    0.3028 C.ar      1 MOL1       -0.0557
      8 C            3.7534   -0.8317   -0.0100 C.ar      1 MOL1       -0.0233
      9 C            2.9898   -2.0944   -0.1418 C.2       1 MOL1       -0.0277
     10 C            1.6616   -2.2764    0.0662 C.2       1 MOL1       -0.0363
     11 C            1.3357   -3.7106   -0.2918 C.3       1 MOL1       -0.0458
     12 C           -0.1490   -4.0654   -0.2803 C.3       1 MOL1       -0.0863
     13 C           -0.8808   -3.1385   -1.2607 C.3       1 MOL1       -0.0863
     14 C           -1.4959   -1.9707   -0.4876 C.3       1 MOL1       -0.0458
     15 C           -0.5640   -0.9918    0.2089 C.2       1 MOL1       -0.0363
     16 C           -0.9993    0.2715    0.4374 C.2       1 MOL1       -0.0277
     17 C           -2.3549    0.8113    0.1667 C.ar      1 MOL1       -0.0233
     18 C           -2.4377    2.1455   -0.2025 C.ar      1 MOL1       -0.0557
     19 C           -3.6546    2.7299   -0.4564 C.ar      1 MOL1       -0.0878
     20 C           -4.8086    1.9920   -0.3452 C.ar      1 MOL1       -0.0494
     21 C           -4.7629    0.6563    0.0248 C.ar      1 MOL1       -0.0056
     22 C           -3.5298    0.0851    0.2880 C.ar      1 MOL1       -0.0388
     23 C           -6.0256   -0.1312    0.1360 C.2       1 MOL1        0.1555
     24 N           -6.0641   -1.3924   -0.2001 N.2       1 MOL1       -0.5838
     25 N           -7.1396    0.4881    0.5840 N.am      1 MOL1       -0.4205
     26 C            0.8370   -1.1842    0.5640 C.2       1 MOL1        0.1763
     27 O            1.3131   -0.3751    1.3486 O.2       1 MOL1       -0.3992
     28 C            3.2411    0.4386   -0.2186 C.ar      1 MOL1       -0.0388
     29  H           3.8314    4.8130   -0.4706 H         1 MOL1        0.2753
     30  H           5.0680    3.9672   -0.2481 H         1 MOL1        0.2753
     31  H           1.8032    3.8854   -0.6384 H         1 MOL1        0.2200
     32  H           5.9739    2.1954    0.3136 H         1 MOL1        0.0910
     33  H           6.8678    0.0365    0.6493 H         1 MOL1        0.0906
     34  H           5.4852   -1.8731    0.4443 H         1 MOL1        0.0910
     35  H           3.5201   -2.8876   -0.4151 H         1 MOL1        0.0912
     36  H           1.7532   -3.9596   -1.3895 H         1 MOL1        0.0492
     37  H           1.8862   -4.4297    0.4952 H         1 MOL1        0.0492
     38  H          -0.2492   -5.2033   -0.6481 H         1 MOL1        0.0463
     39  H          -0.5712   -3.9881    0.8406 H         1 MOL1        0.0463
     40  H          -0.1678   -2.7333   -2.1365 H         1 MOL1        0.0463
     41  H          -1.7903   -3.7393   -1.7644 H         1 MOL1        0.0463
     42  H          -2.1776   -1.3865   -1.2826 H         1 MOL1        0.0492
     43  H          -2.2105   -2.4653    0.3390 H         1 MOL1        0.0492
     44  H          -0.3383    0.9099    0.8047 H         1 MOL1        0.0912
     45  H          -1.6025    2.6890   -0.2850 H         1 MOL1        0.0910
     46  H          -3.7002    3.6933   -0.7205 H         1 MOL1        0.0906
     47  H          -5.6915    2.4241   -0.5313 H         1 MOL1        0.0910
     48  H          -3.4854   -0.8685    0.5746 H         1 MOL1        0.0914
     49  H          -5.1897   -1.7304   -0.5476 H         1 MOL1        0.2200
     50  H          -7.1184    1.3360    0.8197 H         1 MOL1        0.2753
     51  H          -7.8947    0.0376    0.6421 H         1 MOL1        0.2753
     52  H           2.2751    0.5435   -0.4553 H         1 MOL1        0.0914
@<TRIPOS>BOND
     1      1      2 am
     2      2      3 2 
     3      2      4 1 
     4      4      5 ar
     5      5      6 ar
     6      6      7 ar
     7      7      8 ar
     8      8      9 1 
     9      8     28 ar
    10      9     10 2 
    11     10     11 1 
    12     10     26 1 
    13     11     12 1 
    14     12     13 1 
    15     13     14 1 
    16     14     15 1 
    17     15     16 2 
    18     15     26 1 
    19     16     17 1 
    20     17     18 ar
    21     18     19 ar
    22     19     20 ar
    23     20     21 ar
    24     21     22 ar
    25     21     23 1 
    26     22     17 ar
    27     23     24 2 
    28     23     25 am
    29     26     27 2 
    30     28      4 ar
    31      1     29 1 
    32      1     30 1 
    33      3     31 1 
    34      5     32 1 
    35      6     33 1 
    36      7     34 1 
    37      9     35 1 
    38     11     36 1 
    39     11     37 1 
    40     12     38 1 
    41     12     39 1 
    42     13     40 1 
    43     13     41 1 
    44     14     42 1 
    45     14     43 1 
    46     16     44 1 
    47     18     45 1 
    48     19     46 1 
    49     20     47 1 
    50     22     48 1 
    51     24     49 1 
    52     25     50 1 
    53     25     51 1 
    54     28     52 1 
@<TRIPOS>SUBSTRUCTURE
     1 MOL1         1 MOLECULE          1 A
