# Molecule written by the XED library from Cresset
@<TRIPOS>MOLECULE
CHEMBL3114559
    57     58      1
SMALL
USER_CHARGES
@<TRIPOS>ATOM
      1 C           -2.0044   -4.5850   -0.4095 C.3       1 MOL1       -0.1122
      2 C           -1.1831   -3.2914   -0.2543 C.3       1 MOL1       -0.0203
      3 C           -0.3985   -3.0776   -1.5630 C.3       1 MOL1       -0.1122
      4 C           -0.1853   -3.5441    0.8890 C.3       1 MOL1       -0.1122
      5 C           -2.1303   -2.1055    0.0966 C.3       1 MOL1        0.0740
      6 O           -3.4035   -2.2966   -0.5430 O.3       1 MOL1       -0.4291
      7 C           -1.6467   -0.6921   -0.2234 C.2       1 MOL1        0.3000
      8 O           -0.5604   -0.4888   -0.7471 O.2       1 MOL1       -0.4159
      9 N           -2.5127    0.3041    0.0886 N.am      1 MOL1       -0.3903
     10 C           -3.8600    0.0622    0.6687 C.3       1 MOL1        0.0720
     11 C           -4.5666    1.2380    1.3707 C.3       1 MOL1       -0.0738
     12 C           -4.4389    2.5060    0.5160 C.3       1 MOL1       -0.0815
     13 C           -2.9444    2.8375    0.3933 C.3       1 MOL1       -0.0601
     14 C           -2.1883    1.6965   -0.3218 C.3       1 MOL1        0.1597
     15 C           -0.7334    2.1280   -0.3031 C.2       1 MOL1        0.3240
     16 O           -0.2965    2.9391   -1.1089 O.2       1 MOL1       -0.4176
     17 N           -0.0199    1.5574    0.6829 N.am      1 MOL1       -0.3832
     18 C            1.3680    1.9871    0.9285 C.3       1 MOL1        0.1154
     19 C            2.4476    0.9802    0.5328 C.ar      1 MOL1       -0.0323
     20 C            2.1379   -0.3621    0.5486 C.ar      1 MOL1       -0.0576
     21 C            3.0712   -1.3137    0.2040 C.ar      1 MOL1        0.0436
     22 Cl           2.6560   -3.0013    0.2282 Cl        1 MOL1       -0.1082
     23 C            4.3369   -0.9227   -0.1610 C.ar      1 MOL1       -0.0637
     24 C            4.6568    0.4144   -0.1715 C.ar      1 MOL1       -0.0779
     25 C            3.7264    1.3717    0.1760 C.ar      1 MOL1       -0.0513
     26 C            4.1293    2.8434    0.1597 C.3       1 MOL1       -0.0191
     27 N            5.5778    3.0831    0.1407 N.3       1 MOL1       -0.6086
     28 H           -2.2923   -2.1803    1.2830 H         1 MOL1        0.0726
     29 H           -2.5250    1.7600   -1.4720 H         1 MOL1        0.0678
     30  H          -2.7125   -4.4985   -1.3756 H         1 MOL1        0.0438
     31  H          -2.6795   -4.7486    0.5682 H         1 MOL1        0.0438
     32  H          -1.2639   -5.5199   -0.5385 H         1 MOL1        0.0438
     33  H           0.0931   -4.1067   -1.9354 H         1 MOL1        0.0438
     34  H           0.4982   -2.3034   -1.3746 H         1 MOL1        0.0438
     35  H          -1.1321   -2.6530   -2.4122 H         1 MOL1        0.0438
     36  H           0.3875   -2.5332    1.1809 H         1 MOL1        0.0438
     37  H          -0.7617   -3.9570    1.8559 H         1 MOL1        0.0438
     38  H           0.6182   -4.3624    0.5334 H         1 MOL1        0.0438
     39  H          -3.8525   -3.1402   -0.2260 H         1 MOL1        0.3291
     40  H          -4.5755   -0.2748   -0.2336 H         1 MOL1        0.0593
     41  H          -3.8635   -0.8054    1.4933 H         1 MOL1        0.0593
     42  H          -5.7262    0.9764    1.5343 H         1 MOL1        0.0474
     43  H          -4.0561    1.4291    2.4394 H         1 MOL1        0.0474
     44  H          -4.9093    2.3108   -0.5709 H         1 MOL1        0.0460
     45  H          -5.0040    3.4178    1.0542 H         1 MOL1        0.0460
     46  H          -2.8077    3.8498   -0.2365 H         1 MOL1        0.0479
     47  H          -2.4880    2.9961    1.4923 H         1 MOL1        0.0479
     48  H          -0.3840    0.9448    1.2002 H         1 MOL1        0.2040
     49  H           1.5295    3.0090    0.3217 H         1 MOL1        0.0620
     50  H           1.4716    2.2180    2.1020 H         1 MOL1        0.0620
     51  H           1.2183   -0.6447    0.8117 H         1 MOL1        0.0941
     52  H           5.0215   -1.6066   -0.4151 H         1 MOL1        0.0939
     53  H           5.5809    0.6978   -0.4330 H         1 MOL1        0.0908
     54  H           3.6979    3.3664    1.1494 H         1 MOL1        0.0594
     55  H           3.6457    3.3695   -0.8044 H         1 MOL1        0.0594
     56  H           6.0604    2.6229    0.9217 H         1 MOL1        0.2740
     57  H           5.8106    4.0815    0.0742 H         1 MOL1        0.2740
@<TRIPOS>BOND
     1      1      2 1 
     2      2      3 1 
     3      2      4 1 
     4      2      5 1 
     5      5      6 1 
     6      5      7 1 
     7      7      8 2 
     8      7      9 am
     9      9     10 1 
    10     10     11 1 
    11     11     12 1 
    12     12     13 1 
    13     13     14 1 
    14     14      9 1 
    15     14     15 1 
    16     15     16 2 
    17     15     17 am
    18     17     18 1 
    19     18     19 1 
    20     19     20 ar
    21     20     21 ar
    22     21     22 1 
    23     21     23 ar
    24     23     24 ar
    25     24     25 ar
    26     25     19 ar
    27     25     26 1 
    28     26     27 1 
    29      1     30 1 
    30      1     31 1 
    31      1     32 1 
    32      3     33 1 
    33      3     34 1 
    34      3     35 1 
    35      4     36 1 
    36      4     37 1 
    37      4     38 1 
    38      5     28 1 
    39      6     39 1 
    40     10     40 1 
    41     10     41 1 
    42     11     42 1 
    43     11     43 1 
    44     12     44 1 
    45     12     45 1 
    46     13     46 1 
    47     13     47 1 
    48     14     29 1 
    49     17     48 1 
    50     18     49 1 
    51     18     50 1 
    52     20     51 1 
    53     23     52 1 
    54     24     53 1 
    55     26     54 1 
    56     26     55 1 
    57     27     56 1 
    58     27     57 1 
@<TRIPOS>SUBSTRUCTURE
     1 MOL1         1 MOLECULE          1 A
