# Molecule written by the XED library from Cresset
@<TRIPOS>MOLECULE
CHEMBL10657
    53     55      1
SMALL
USER_CHARGES
@<TRIPOS>ATOM
      1 C           -8.1999    0.2952    0.6502 C.3       1 MOL1       -0.1236
      2 C           -7.2882   -0.7489   -0.0222 C.3       1 MOL1       -0.0803
      3 C           -5.7957   -0.4895    0.2620 C.3       1 MOL1        0.0127
      4 C           -5.2802    0.6998   -0.5733 C.3       1 MOL1       -0.0306
      5 C           -3.7960    0.8031   -0.3505 C.2       1 MOL1       -0.0541
      6 C           -3.0784   -0.3090   -0.0249 C.2       1 MOL1        0.0834
      7 N           -3.6567   -1.5493   -0.0070 N.pl3     1 MOL1       -0.2084
      8 C           -4.9846   -1.7537    0.0288 C.2       1 MOL1        0.2979
      9 O           -5.4850   -2.8627   -0.0851 O.2       1 MOL1       -0.4156
     10 C           -1.6836   -0.1880    0.2798 C.2       1 MOL1        0.2842
     11 O           -1.1030   -1.2430    0.5476 O.2       1 MOL1       -0.4813
     12 N           -1.0864    1.0224    0.2619 N.am      1 MOL1       -0.1820
     13 C            0.3559    1.0739    0.5997 C.3       1 MOL1        0.1486
     14 C            1.1708    0.0402   -0.1427 C.2       1 MOL1        0.3219
     15 O            0.7131   -0.6386   -1.0530 O.2       1 MOL1       -0.4181
     16 N            2.4317   -0.0295    0.3147 N.am      1 MOL1       -0.3833
     17 C            3.3664   -0.9799   -0.3059 C.3       1 MOL1        0.1140
     18 C            4.8524   -0.6743   -0.1305 C.ar      1 MOL1       -0.0562
     19 C            5.6574   -1.7343    0.2309 C.ar      1 MOL1       -0.0358
     20 C            6.9976   -1.5509    0.3791 C.ar      1 MOL1       -0.1028
     21 C            7.5211   -0.2872    0.1653 C.ar      1 MOL1        0.1224
     22 N            8.8835   -0.0759    0.3168 N.pl3     1 MOL1       -0.4398
     23 N            6.7735    0.7802   -0.1923 N.ar      1 MOL1       -0.3666
     24 C            5.4476    0.5517   -0.3385 C.ar      1 MOL1        0.0398
     25 C            4.6043    1.7425   -0.7620 C.3       1 MOL1       -0.0659
     26 C           -1.8153    2.1405   -0.0213 C.2       1 MOL1        0.0634
     27 C           -3.1361    2.0624   -0.3105 C.2       1 MOL1       -0.1320
     28 C           -1.0858    3.4667    0.0340 C.3       1 MOL1       -0.0659
     29 H           -5.6787   -0.2108    1.4234 H         1 MOL1        0.0556
     30  H          -9.3444   -0.0114    0.4657 H         1 MOL1        0.0433
     31  H          -8.0124    1.3830    0.1823 H         1 MOL1        0.0433
     32  H          -7.9866    0.3191    1.8307 H         1 MOL1        0.0433
     33  H          -7.4803   -0.7648   -1.2066 H         1 MOL1        0.0463
     34  H          -7.5748   -1.8252    0.4254 H         1 MOL1        0.0463
     35  H          -5.5013    0.5232   -1.7395 H         1 MOL1        0.0497
     36  H          -5.7872    1.7253   -0.2120 H         1 MOL1        0.0497
     37  H          -3.1313   -2.2559   -0.0361 H         1 MOL1        0.2055
     38  H           0.4404    0.8552    1.7776 H         1 MOL1        0.0657
     39  H           0.9032    2.1170    0.3797 H         1 MOL1        0.0657
     40  H           2.6952    0.4806    0.9848 H         1 MOL1        0.2040
     41  H           3.1099   -2.0646    0.1387 H         1 MOL1        0.0620
     42  H           3.1399   -0.9977   -1.4832 H         1 MOL1        0.0620
     43  H           5.2614   -2.6413    0.3804 H         1 MOL1        0.0908
     44  H           7.5920   -2.3147    0.6341 H         1 MOL1        0.0926
     45  H           9.4190   -0.7711    0.3995 H         1 MOL1        0.2753
     46  H           9.2238    0.6872    0.0408 H         1 MOL1        0.2753
     47  H           3.7106    1.3962   -1.4858 H         1 MOL1        0.0476
     48  H           4.1354    2.2706    0.2081 H         1 MOL1        0.0476
     49  H           5.2933    2.5348   -1.3423 H         1 MOL1        0.0476
     50  H          -3.6519    2.8861   -0.5007 H         1 MOL1        0.0919
     51  H          -0.2549    3.5276   -0.8305 H         1 MOL1        0.0476
     52  H          -0.5988    3.6332    1.1183 H         1 MOL1        0.0476
     53  H          -1.8651    4.3601   -0.1548 H         1 MOL1        0.0476
@<TRIPOS>BOND
     1      1      2 1 
     2      2      3 1 
     3      3      4 1 
     4      4      5 1 
     5      5      6 2 
     6      6      7 1 
     7      6     10 1 
     8      7      8 am
     9      8      3 1 
    10      8      9 2 
    11     10     11 2 
    12     10     12 am
    13     12     13 1 
    14     12     26 1 
    15     13     14 1 
    16     14     15 2 
    17     14     16 am
    18     16     17 1 
    19     17     18 1 
    20     18     19 ar
    21     19     20 ar
    22     20     21 ar
    23     21     22 1 
    24     21     23 ar
    25     23     24 ar
    26     24     18 ar
    27     24     25 1 
    28     26     27 2 
    29     26     28 1 
    30     27      5 1 
    31      1     30 1 
    32      1     31 1 
    33      1     32 1 
    34      2     33 1 
    35      2     34 1 
    36      3     29 1 
    37      4     35 1 
    38      4     36 1 
    39      7     37 1 
    40     13     38 1 
    41     13     39 1 
    42     16     40 1 
    43     17     41 1 
    44     17     42 1 
    45     19     43 1 
    46     20     44 1 
    47     22     45 1 
    48     22     46 1 
    49     25     47 1 
    50     25     48 1 
    51     25     49 1 
    52     27     50 1 
    53     28     51 1 
    54     28     52 1 
    55     28     53 1 
@<TRIPOS>SUBSTRUCTURE
     1 MOL1         1 MOLECULE          1 A
