# Molecule written by the XED library from Cresset
@<TRIPOS>MOLECULE
CHEMBL194060
    39     40      1
SMALL
USER_CHARGES
@<TRIPOS>ATOM
      1 N           -5.5393   -2.9022   -0.0740 N.3       1 MOL1       -0.6086
      2 C           -4.2581   -2.2305    0.1759 C.3       1 MOL1       -0.0191
      3 C           -4.3066   -0.7058    0.1011 C.ar      1 MOL1       -0.0513
      4 C           -5.5259   -0.0743    0.2333 C.ar      1 MOL1       -0.0779
      5 C           -5.6203    1.2948    0.1693 C.ar      1 MOL1       -0.0637
      6 C           -4.4866    2.0470   -0.0273 C.ar      1 MOL1        0.0436
      7 Cl          -4.6056    3.7805   -0.1179 Cl        1 MOL1       -0.1082
      8 C           -3.2647    1.4246   -0.1545 C.ar      1 MOL1       -0.0576
      9 C           -3.1590    0.0496   -0.0865 C.ar      1 MOL1       -0.0323
     10 C           -1.8051   -0.6468   -0.2350 C.3       1 MOL1        0.1153
     11 N           -0.5623    0.1177   -0.0338 N.am      1 MOL1       -0.3837
     12 C            0.6044   -0.5469   -0.0414 C.2       1 MOL1        0.2993
     13 O            0.6825   -1.7570   -0.1770 O.2       1 MOL1       -0.4204
     14 C            1.7837    0.3896    0.1326 C.3       1 MOL1        0.0439
     15 C            3.2496   -0.0565    0.0702 C.ar      1 MOL1        0.0530
     16 C            3.7551   -1.3248    0.0609 C.ar      1 MOL1        0.0345
     17 Cl           2.7721   -2.7560    0.1201 Cl        1 MOL1       -0.1071
     18 C            5.1356   -1.5188    0.0082 C.ar      1 MOL1       -0.0797
     19 C            5.9813   -0.4526   -0.0256 C.ar      1 MOL1       -0.1067
     20 C            5.4540    0.8293   -0.0078 C.ar      1 MOL1        0.1343
     21 N            6.2929    1.9166   -0.0312 N.pl3     1 MOL1       -0.4277
     22 N            4.1106    1.0110    0.0358 N.pl3     1 MOL1        0.1495
     23 O            3.6790    2.1650    0.0490 O.co2     1 MOL1       -0.4548
     24  H          -6.2799   -2.5914    0.5649 H         1 MOL1        0.2740
     25  H          -5.4488   -3.9247   -0.0886 H         1 MOL1        0.2740
     26  H          -3.8597   -2.5506    1.2623 H         1 MOL1        0.0594
     27  H          -3.5007   -2.6440   -0.6577 H         1 MOL1        0.0594
     28  H          -6.3527   -0.6197    0.3739 H         1 MOL1        0.0908
     29  H          -6.5102    1.7421    0.2621 H         1 MOL1        0.0939
     30  H          -2.4463    1.9810   -0.3009 H         1 MOL1        0.0941
     31  H          -1.7524   -1.1136   -1.3389 H         1 MOL1        0.0620
     32  H          -1.7505   -1.5462    0.5588 H         1 MOL1        0.0620
     33  H          -0.5830    0.9896    0.0802 H         1 MOL1        0.2040
     34  H           1.6343    0.9524    1.1813 H         1 MOL1        0.0571
     35  H           1.6665    1.2150   -0.7307 H         1 MOL1        0.0571
     36  H           5.5068   -2.4472   -0.0017 H         1 MOL1        0.0939
     37  H           6.9710   -0.5919   -0.0600 H         1 MOL1        0.0929
     38  H           7.1661    1.8040   -0.0569 H         1 MOL1        0.2754
     39  H           5.9585    2.7299   -0.0191 H         1 MOL1        0.2754
@<TRIPOS>BOND
     1      1      2 1 
     2      2      3 1 
     3      3      4 ar
     4      4      5 ar
     5      5      6 ar
     6      6      7 1 
     7      6      8 ar
     8      8      9 ar
     9      9      3 ar
    10      9     10 1 
    11     10     11 1 
    12     11     12 am
    13     12     13 2 
    14     12     14 1 
    15     14     15 1 
    16     15     16 ar
    17     16     17 1 
    18     16     18 ar
    19     18     19 ar
    20     19     20 ar
    21     20     21 1 
    22     20     22 ar
    23     22     15 ar
    24     22     23 1 
    25      1     24 1 
    26      1     25 1 
    27      2     26 1 
    28      2     27 1 
    29      4     28 1 
    30      5     29 1 
    31      8     30 1 
    32     10     31 1 
    33     10     32 1 
    34     11     33 1 
    35     14     34 1 
    36     14     35 1 
    37     18     36 1 
    38     19     37 1 
    39     21     38 1 
    40     21     39 1 
@<TRIPOS>SUBSTRUCTURE
     1 MOL1         1 MOLECULE          1 A
