# Molecule written by the XED library from Cresset
@<TRIPOS>MOLECULE
CHEMBL326552
    52     54      1
SMALL
USER_CHARGES
@<TRIPOS>ATOM
      1 N            8.5229    1.0756    0.0660 N.am      1 MOL1       -0.4205
      2 C            7.1916    1.3305    0.0439 C.2       1 MOL1        0.1555
      3 N            6.7181    2.5447    0.0870 N.2       1 MOL1       -0.5838
      4 C            6.2038    0.2176   -0.0316 C.ar      1 MOL1       -0.0056
      5 C            6.5726   -1.1162   -0.1188 C.ar      1 MOL1       -0.0494
      6 C            5.6137   -2.0962   -0.1928 C.ar      1 MOL1       -0.0878
      7 C            4.2801   -1.7683   -0.1781 C.ar      1 MOL1       -0.0557
      8 C            3.8652   -0.4440   -0.0807 C.ar      1 MOL1       -0.0233
      9 C            2.4735    0.0896   -0.0469 C.2       1 MOL1       -0.0277
     10 C            1.3020   -0.5880    0.0783 C.2       1 MOL1       -0.0363
     11 C            1.3423   -2.0956    0.2296 C.3       1 MOL1       -0.0458
     12 C            0.0387   -2.8276    0.5289 C.3       1 MOL1       -0.0863
     13 C           -0.9255   -2.5786   -0.6364 C.3       1 MOL1       -0.0863
     14 C           -1.8672   -1.4469   -0.2366 C.3       1 MOL1       -0.0458
     15 C           -1.2639   -0.0839    0.0412 C.2       1 MOL1       -0.0363
     16 C           -2.1002    0.9834    0.1241 C.2       1 MOL1       -0.0277
     17 C           -3.5830    1.0100   -0.0020 C.ar      1 MOL1       -0.0233
     18 C           -4.1147    2.2564   -0.2994 C.ar      1 MOL1       -0.0557
     19 C           -5.4668    2.4360   -0.4561 C.ar      1 MOL1       -0.0878
     20 C           -6.3221    1.3698   -0.3214 C.ar      1 MOL1       -0.0494
     21 C           -5.8342    0.1081   -0.0160 C.ar      1 MOL1       -0.0056
     22 C           -4.4690   -0.0471    0.1567 C.ar      1 MOL1       -0.0388
     23 C           -6.7681   -1.0499    0.1206 C.2       1 MOL1        0.1555
     24 N           -6.4049   -2.2523   -0.2350 N.2       1 MOL1       -0.5838
     25 N           -8.0095   -0.8364    0.6097 N.am      1 MOL1       -0.4205
     26 C            0.1432    0.3023    0.1239 C.2       1 MOL1        0.1763
     27 O            0.3813    1.4994    0.2248 O.2       1 MOL1       -0.3992
     28 C            4.8554    0.5248   -0.0153 C.ar      1 MOL1       -0.0388
     29  H           9.1020    1.7367    0.1086 H         1 MOL1        0.2753
     30  H           8.8214    0.2498    0.0387 H         1 MOL1        0.2753
     31  H           7.4418    3.2333    0.1362 H         1 MOL1        0.2200
     32  H           7.5375   -1.3730   -0.1307 H         1 MOL1        0.0910
     33  H           5.8883   -3.0555   -0.2589 H         1 MOL1        0.0906
     34  H           3.6155   -2.5039   -0.2398 H         1 MOL1        0.0910
     35  H           2.3965    1.0737   -0.1165 H         1 MOL1        0.0912
     36  H           1.7284   -2.5654   -0.8045 H         1 MOL1        0.0492
     37  H           2.0814   -2.3655    1.1355 H         1 MOL1        0.0492
     38  H          -0.3940   -2.4745    1.5914 H         1 MOL1        0.0463
     39  H           0.2932   -3.9992    0.5893 H         1 MOL1        0.0463
     40  H          -0.3712   -2.3084   -1.6663 H         1 MOL1        0.0463
     41  H          -1.5987   -3.5575   -0.8084 H         1 MOL1        0.0463
     42  H          -2.4108   -1.8250    0.7639 H         1 MOL1        0.0492
     43  H          -2.6612   -1.3400   -1.1298 H         1 MOL1        0.0492
     44  H          -1.6699    1.8638    0.2588 H         1 MOL1        0.0912
     45  H          -3.5008    3.0388   -0.4044 H         1 MOL1        0.0910
     46  H          -5.8287    3.3428   -0.6721 H         1 MOL1        0.0906
     47  H          -7.3044    1.5069   -0.4464 H         1 MOL1        0.0910
     48  H          -4.1223   -0.9445    0.4023 H         1 MOL1        0.0914
     49  H          -5.4808   -2.2892   -0.6131 H         1 MOL1        0.2200
     50  H          -8.2607   -0.0335    0.8675 H         1 MOL1        0.2753
     51  H          -8.5728   -1.5096    0.6737 H         1 MOL1        0.2753
     52  H           4.5865    1.4858    0.0477 H         1 MOL1        0.0914
@<TRIPOS>BOND
     1      1      2 am
     2      2      3 2 
     3      2      4 1 
     4      4      5 ar
     5      5      6 ar
     6      6      7 ar
     7      7      8 ar
     8      8      9 1 
     9      8     28 ar
    10      9     10 2 
    11     10     11 1 
    12     10     26 1 
    13     11     12 1 
    14     12     13 1 
    15     13     14 1 
    16     14     15 1 
    17     15     16 2 
    18     15     26 1 
    19     16     17 1 
    20     17     18 ar
    21     18     19 ar
    22     19     20 ar
    23     20     21 ar
    24     21     22 ar
    25     21     23 1 
    26     22     17 ar
    27     23     24 2 
    28     23     25 am
    29     26     27 2 
    30     28      4 ar
    31      1     29 1 
    32      1     30 1 
    33      3     31 1 
    34      5     32 1 
    35      6     33 1 
    36      7     34 1 
    37      9     35 1 
    38     11     36 1 
    39     11     37 1 
    40     12     38 1 
    41     12     39 1 
    42     13     40 1 
    43     13     41 1 
    44     14     42 1 
    45     14     43 1 
    46     16     44 1 
    47     18     45 1 
    48     19     46 1 
    49     20     47 1 
    50     22     48 1 
    51     24     49 1 
    52     25     50 1 
    53     25     51 1 
    54     28     52 1 
@<TRIPOS>SUBSTRUCTURE
     1 MOL1         1 MOLECULE          1 A
