# Molecule written by the XED library from Cresset
@<TRIPOS>MOLECULE
CHEMBL173612
    53     56      1
SMALL
USER_CHARGES
@<TRIPOS>ATOM
      1 N            8.3716   -2.2127   -0.0045 N.am      1 MOL1       -0.4218
      2 C            7.9472   -0.9249   -0.0025 C.2       1 MOL1        0.1484
      3 N            8.7819    0.0786   -0.0022 N.2       1 MOL1       -0.5921
      4 C            6.4951   -0.6012   -0.0004 C.ar      1 MOL1       -0.0223
      5 C            5.4949   -1.5996    0.0083 C.ar      1 MOL1       -0.0603
      6 C            4.1673   -1.2911    0.0127 C.ar      1 MOL1       -0.0894
      7 C            3.8175    0.0571    0.0072 C.ar      1 MOL1        0.0913
      8 C            4.7755    1.0405   -0.0045 C.ar      1 MOL1       -0.0194
      9 C            3.9842    2.2130   -0.0104 C.ar      1 MOL1       -0.0031
     10 N            2.7158    1.9060   -0.0006 N.2       1 MOL1       -0.2629
     11 N            2.5443    0.5507    0.0128 N.pl3     1 MOL1       -0.0948
     12 C            1.2446   -0.1311    0.0440 C.3       1 MOL1        0.1505
     13 C            0.1203    0.8793    0.0978 C.2       1 MOL1        0.3194
     14 O            0.3599    2.0680   -0.0632 O.2       1 MOL1       -0.4176
     15 N           -1.1060    0.3727    0.3528 N.am      1 MOL1       -0.3984
     16 C           -2.2383    1.2913    0.5662 C.3       1 MOL1        0.0721
     17 C           -3.4615    0.9053   -0.2866 C.3       1 MOL1       -0.0691
     18 C           -3.8576   -0.5623   -0.0155 C.3       1 MOL1       -0.0503
     19 C           -5.0637   -0.9751   -0.8905 C.3       1 MOL1       -0.0464
     20 C           -6.4267   -0.4969   -0.4101 C.ar      1 MOL1       -0.0632
     21 C           -6.8832    0.7650   -0.7240 C.ar      1 MOL1       -0.0864
     22 C           -8.1203    1.1850   -0.2912 C.ar      1 MOL1       -0.0901
     23 C           -8.9100    0.3424    0.4566 C.ar      1 MOL1       -0.0906
     24 C           -8.4602   -0.9191    0.7717 C.ar      1 MOL1       -0.0901
     25 C           -7.2219   -1.3361    0.3397 C.ar      1 MOL1       -0.0864
     26 C           -2.6530   -1.4746   -0.3297 C.3       1 MOL1       -0.0691
     27 C           -1.4101   -1.0703    0.4909 C.3       1 MOL1        0.0721
     28 C            6.1312    0.7255   -0.0074 C.ar      1 MOL1       -0.0378
     29  H           9.2318   -2.3975   -0.0080 H         1 MOL1        0.2753
     30  H           7.7948   -2.8750   -0.0026 H         1 MOL1        0.2753
     31  H           9.7362   -0.2208   -0.0036 H         1 MOL1        0.2200
     32  H           5.7604   -2.5621    0.0119 H         1 MOL1        0.0910
     33  H           3.4693   -2.0071    0.0195 H         1 MOL1        0.0919
     34  H           4.3458    3.1453   -0.0206 H         1 MOL1        0.1007
     35  H           1.2311   -0.8163    1.0293 H         1 MOL1        0.0666
     36  H           1.1575   -0.8002   -0.9488 H         1 MOL1        0.0666
     37  H          -2.5478    1.2531    1.7250 H         1 MOL1        0.0593
     38  H          -1.9176    2.4137    0.2886 H         1 MOL1        0.0593
     39  H          -3.1799    1.0417   -1.4451 H         1 MOL1        0.0476
     40  H          -4.3769    1.6296   -0.0101 H         1 MOL1        0.0476
     41  H          -4.1458   -0.6910    1.1424 H         1 MOL1        0.0490
     42  H          -4.8816   -0.5838   -2.0106 H         1 MOL1        0.0495
     43  H          -5.1077   -2.1741   -0.9407 H         1 MOL1        0.0495
     44  H          -6.3120    1.3791   -1.2688 H         1 MOL1        0.0908
     45  H          -8.4454    2.1023   -0.5209 H         1 MOL1        0.0906
     46  H          -9.8097    0.6462    0.7704 H         1 MOL1        0.0906
     47  H          -9.0332   -1.5331    1.3145 H         1 MOL1        0.0906
     48  H          -6.8982   -2.2539    0.5694 H         1 MOL1        0.0908
     49  H          -2.3955   -1.3885   -1.4984 H         1 MOL1        0.0476
     50  H          -2.9238   -2.6139   -0.0670 H         1 MOL1        0.0476
     51  H          -1.6317   -1.2941    1.6488 H         1 MOL1        0.0593
     52  H          -0.5407   -1.8070    0.1227 H         1 MOL1        0.0593
     53  H           6.8242    1.4464   -0.0142 H         1 MOL1        0.0914
@<TRIPOS>BOND
     1      1      2 am
     2      2      3 2 
     3      2      4 1 
     4      4      5 ar
     5      5      6 ar
     6      6      7 ar
     7      7      8 ar
     8      8      9 ar
     9      8     28 ar
    10      9     10 ar
    11     10     11 ar
    12     11      7 ar
    13     11     12 1 
    14     12     13 1 
    15     13     14 2 
    16     13     15 am
    17     15     16 1 
    18     16     17 1 
    19     17     18 1 
    20     18     19 1 
    21     18     26 1 
    22     19     20 1 
    23     20     21 ar
    24     21     22 ar
    25     22     23 ar
    26     23     24 ar
    27     24     25 ar
    28     25     20 ar
    29     26     27 1 
    30     27     15 1 
    31     28      4 ar
    32      1     29 1 
    33      1     30 1 
    34      3     31 1 
    35      5     32 1 
    36      6     33 1 
    37      9     34 1 
    38     12     35 1 
    39     12     36 1 
    40     16     37 1 
    41     16     38 1 
    42     17     39 1 
    43     17     40 1 
    44     18     41 1 
    45     19     42 1 
    46     19     43 1 
    47     21     44 1 
    48     22     45 1 
    49     23     46 1 
    50     24     47 1 
    51     25     48 1 
    52     26     49 1 
    53     26     50 1 
    54     27     51 1 
    55     27     52 1 
    56     28     53 1 
@<TRIPOS>SUBSTRUCTURE
     1 MOL1         1 MOLECULE          1 A
