# Molecule written by the XED library from Cresset
@<TRIPOS>MOLECULE
CHEMBL153660
    55     57      1
SMALL
USER_CHARGES
@<TRIPOS>ATOM
      1 C            9.8430    1.0841    0.1675 C.3       1 MOL1       -0.0605
      2 N            8.3611    1.0212    0.1285 N.2       1 MOL1       -0.4761
      3 C            7.7106   -0.0995   -0.0365 C.2       1 MOL1        0.1639
      4 N            8.3308   -1.2965   -0.1778 N.am      1 MOL1       -0.4210
      5 C            6.2262   -0.0193   -0.0584 C.ar      1 MOL1       -0.0020
      6 C            5.4204   -1.0312   -0.5620 C.ar      1 MOL1       -0.0581
      7 C            4.0548   -0.9039   -0.5719 C.ar      1 MOL1       -0.0722
      8 C            3.4376    0.2354   -0.0672 C.ar      1 MOL1       -0.0127
      9 C            1.9823    0.5264   -0.0342 C.2       1 MOL1       -0.0303
     10 C            0.9467   -0.3528   -0.0379 C.2       1 MOL1       -0.0280
     11 C            1.2680   -1.8334    0.0416 C.3       1 MOL1       -0.0457
     12 C            0.1942   -2.7826    0.5665 C.3       1 MOL1       -0.0863
     13 C           -0.9890   -2.7831   -0.4075 C.3       1 MOL1       -0.0863
     14 C           -2.0304   -1.7832    0.0865 C.3       1 MOL1       -0.0457
     15 C           -1.6622   -0.3112    0.0851 C.2       1 MOL1       -0.0280
     16 C           -2.6721    0.5939    0.0179 C.2       1 MOL1       -0.0303
     17 C           -4.1335    0.3373    0.0485 C.ar      1 MOL1       -0.0127
     18 C           -4.9227    1.2928   -0.5745 C.ar      1 MOL1       -0.0722
     19 C           -6.2884    1.1819   -0.5919 C.ar      1 MOL1       -0.0581
     20 C           -6.9223    0.1089    0.0156 C.ar      1 MOL1       -0.0026
     21 C           -6.1387   -0.8453    0.6485 C.ar      1 MOL1       -0.0581
     22 C           -4.7721   -0.7290    0.6708 C.ar      1 MOL1       -0.0722
     23 C           -8.4088    0.0134   -0.0046 C.2       1 MOL1        0.1561
     24 N           -9.0061   -1.1399   -0.1327 N.2       1 MOL1       -0.5779
     25 N           -9.1316    1.1492    0.1101 N.am      1 MOL1       -0.4216
     26 C           -0.3484    0.3212    0.0081 C.2       1 MOL1        0.1799
     27 O           -0.3314    1.5452   -0.0217 O.2       1 MOL1       -0.3945
     28 C            4.2505    1.2465    0.4247 C.ar      1 MOL1       -0.0722
     29 C            5.6146    1.1233    0.4307 C.ar      1 MOL1       -0.0581
     30  H          10.1725    2.2268    0.3251 H         1 MOL1        0.0565
     31  H          10.2594    0.4298    1.0832 H         1 MOL1        0.0565
     32  H          10.3046    0.6885   -0.8675 H         1 MOL1        0.0565
     33  H           9.2086   -1.3396   -0.1915 H         1 MOL1        0.2753
     34  H           7.8635   -2.0376   -0.2501 H         1 MOL1        0.2753
     35  H           5.8360   -1.8618   -0.9310 H         1 MOL1        0.0910
     36  H           3.5075   -1.6425   -0.9559 H         1 MOL1        0.0910
     37  H           1.7439    1.4859   -0.0001 H         1 MOL1        0.0912
     38  H           2.1971   -1.9917    0.7847 H         1 MOL1        0.0492
     39  H           1.5545   -2.2172   -1.0580 H         1 MOL1        0.0492
     40  H           0.6791   -3.8802    0.5846 H         1 MOL1        0.0463
     41  H          -0.1130   -2.4846    1.6881 H         1 MOL1        0.0463
     42  H          -0.6753   -2.5338   -1.5387 H         1 MOL1        0.0463
     43  H          -1.5107   -3.8639   -0.3852 H         1 MOL1        0.0463
     44  H          -2.9759   -1.9495   -0.6322 H         1 MOL1        0.0492
     45  H          -2.3136   -2.1048    1.2066 H         1 MOL1        0.0492
     46  H          -2.4076    1.5432   -0.0725 H         1 MOL1        0.0912
     47  H          -4.4872    2.0772   -1.0163 H         1 MOL1        0.0910
     48  H          -6.8357    1.8845   -1.0467 H         1 MOL1        0.0910
     49  H          -6.5710   -1.6230    1.1041 H         1 MOL1        0.0910
     50  H          -4.2381   -1.4218    1.1482 H         1 MOL1        0.0910
     51  H          -8.3654   -1.9012   -0.2313 H         1 MOL1        0.2200
     52  H          -8.7316    1.9281    0.2048 H         1 MOL1        0.2753
     53  H         -10.0103    1.1099    0.0934 H         1 MOL1        0.2753
     54  H           3.8325    2.0825    0.7800 H         1 MOL1        0.0910
     55  H           6.1764    1.8681    0.7911 H         1 MOL1        0.0910
@<TRIPOS>BOND
     1      1      2 1 
     2      2      3 2 
     3      3      4 am
     4      3      5 1 
     5      5      6 ar
     6      6      7 ar
     7      7      8 ar
     8      8      9 1 
     9      8     28 ar
    10      9     10 2 
    11     10     11 1 
    12     10     26 1 
    13     11     12 1 
    14     12     13 1 
    15     13     14 1 
    16     14     15 1 
    17     15     16 2 
    18     15     26 1 
    19     16     17 1 
    20     17     18 ar
    21     18     19 ar
    22     19     20 ar
    23     20     21 ar
    24     20     23 1 
    25     21     22 ar
    26     22     17 ar
    27     23     24 2 
    28     23     25 am
    29     26     27 2 
    30     28     29 ar
    31     29      5 ar
    32      1     30 1 
    33      1     31 1 
    34      1     32 1 
    35      4     33 1 
    36      4     34 1 
    37      6     35 1 
    38      7     36 1 
    39      9     37 1 
    40     11     38 1 
    41     11     39 1 
    42     12     40 1 
    43     12     41 1 
    44     13     42 1 
    45     13     43 1 
    46     14     44 1 
    47     14     45 1 
    48     16     46 1 
    49     18     47 1 
    50     19     48 1 
    51     21     49 1 
    52     22     50 1 
    53     24     51 1 
    54     25     52 1 
    55     25     53 1 
    56     28     54 1 
    57     29     55 1 
@<TRIPOS>SUBSTRUCTURE
     1 MOL1         1 MOLECULE          1 A
