# Molecule written by the XED library from Cresset
@<TRIPOS>MOLECULE
CHEMBL330244
    31     33      1
SMALL
USER_CHARGES
@<TRIPOS>ATOM
      1 N           -6.1831    0.4040    0.0001 N.am      1 MOL1       -0.4220
      2 C           -5.1466   -0.4707    0.0000 C.2       1 MOL1        0.1479
      3 N           -5.3325   -1.7625    0.0000 N.2       1 MOL1       -0.5921
      4 C           -3.7387    0.0144   -0.0001 C.ar      1 MOL1       -0.0232
      5 C           -3.4195    1.3918    0.0001 C.ar      1 MOL1       -0.0740
      6 C           -2.1287    1.8388    0.0000 C.ar      1 MOL1       -0.0908
      7 C           -1.1386    0.8688    0.0000 C.ar      1 MOL1        0.0822
      8 N            0.2239    1.0823    0.0000 N.pl3     1 MOL1       -0.1582
      9 C            0.7671   -0.1511   -0.0001 C.ar      1 MOL1        0.2199
     10 N           -0.1846   -1.0889   -0.0002 N.ar      1 MOL1       -0.4001
     11 C           -1.4121   -0.4684   -0.0001 C.ar      1 MOL1        0.0255
     12 C           -2.7291   -0.9246   -0.0002 C.ar      1 MOL1       -0.0500
     13 C            2.1925   -0.3965   -0.0001 C.ar      1 MOL1        0.0074
     14 C            2.6083   -1.7196    0.0000 C.ar      1 MOL1       -0.0654
     15 C            3.9426   -2.0384    0.0001 C.ar      1 MOL1       -0.0992
     16 C            4.8918   -1.0385    0.0001 C.ar      1 MOL1       -0.0524
     17 C            4.5044    0.2799    0.0000 C.ar      1 MOL1        0.0474
     18 Br           5.8226    1.6256    0.0000 Br        1 MOL1       -0.0843
     19 C            3.1596    0.6089   -0.0001 C.ar      1 MOL1        0.0987
     20 O            2.7894    1.9179   -0.0001 O.3       1 MOL1       -0.3724
     21 H            0.6380    1.8570    0.0000 H         1 MOL1        0.2049
     22  H          -7.0128    0.1109    0.0001 H         1 MOL1        0.2753
     23  H          -6.0394    1.2705    0.0001 H         1 MOL1        0.2753
     24  H          -6.3023   -2.0068    0.0001 H         1 MOL1        0.2200
     25  H          -4.1554    2.0664    0.0002 H         1 MOL1        0.0910
     26  H          -1.9096    2.8145    0.0001 H         1 MOL1        0.0919
     27  H          -2.9354   -1.9030   -0.0003 H         1 MOL1        0.0923
     28  H           1.9262   -2.4510    0.0000 H         1 MOL1        0.0910
     29  H           4.2271   -2.9972    0.0000 H         1 MOL1        0.0906
     30  H           5.8638   -1.2731    0.0002 H         1 MOL1        0.0934
     31  H           3.5891    2.5286    0.0001 H         1 MOL1        0.3295
@<TRIPOS>BOND
     1      1      2 am
     2      2      3 2 
     3      2      4 1 
     4      4      5 ar
     5      5      6 ar
     6      6      7 ar
     7      7      8 ar
     8      8      9 ar
     9      9     10 ar
    10      9     13 1 
    11     10     11 ar
    12     11      7 ar
    13     11     12 ar
    14     12      4 ar
    15     13     14 ar
    16     14     15 ar
    17     15     16 ar
    18     16     17 ar
    19     17     18 1 
    20     17     19 ar
    21     19     13 ar
    22     19     20 1 
    23      1     22 1 
    24      1     23 1 
    25      3     24 1 
    26      5     25 1 
    27      6     26 1 
    28      8     21 1 
    29     12     27 1 
    30     14     28 1 
    31     15     29 1 
    32     16     30 1 
    33     20     31 1 
@<TRIPOS>SUBSTRUCTURE
     1 MOL1         1 MOLECULE          1 A
