# Molecule written by the XED library from Cresset
@<TRIPOS>MOLECULE
CHEMBL368839
    50     53      1
SMALL
USER_CHARGES
@<TRIPOS>ATOM
      1 N           -4.8000    4.6303    0.0945 N.am      1 MOL1       -0.4224
      2 C           -5.4982    3.4727   -0.0020 C.2       1 MOL1        0.1468
      3 N           -6.7978    3.4503   -0.1279 N.2       1 MOL1       -0.5924
      4 C           -4.7949    2.1660    0.0227 C.ar      1 MOL1       -0.0242
      5 C           -3.5046    2.0052    0.5093 C.ar      1 MOL1       -0.0553
      6 C           -2.9042    0.7713    0.5233 C.ar      1 MOL1       -0.0918
      7 C           -3.5670   -0.3454    0.0360 C.ar      1 MOL1        0.0850
      8 C           -4.8555   -0.1832   -0.4497 C.ar      1 MOL1       -0.0918
      9 C           -5.4592    1.0467   -0.4518 C.ar      1 MOL1       -0.0553
     10 N           -2.9806   -1.6247    0.0563 N.pl3     1 MOL1       -0.0257
     11 C           -3.6780   -2.8130    0.1701 C.ar      1 MOL1       -0.0195
     12 C           -2.9046   -3.8952    0.2043 C.ar      1 MOL1       -0.1584
     13 C           -1.5601   -3.4455    0.0979 C.ar      1 MOL1       -0.0618
     14 C           -0.3271   -4.0844    0.0753 C.ar      1 MOL1       -0.0899
     15 C            0.7876   -3.3084   -0.0441 C.ar      1 MOL1       -0.1180
     16 C            0.7087   -1.9091   -0.1509 C.ar      1 MOL1        0.0558
     17 N            1.8724   -1.1216   -0.2559 N.am      1 MOL1       -0.2248
     18 C            3.1674   -1.5128   -0.1386 C.2       1 MOL1        0.3234
     19 O            3.5165   -2.6876   -0.0593 O.2       1 MOL1       -0.4114
     20 C            4.2692   -0.5104   -0.0652 C.ar      1 MOL1        0.0074
     21 C            5.5757   -0.9608    0.0694 C.ar      1 MOL1       -0.0444
     22 C            6.6224   -0.0807    0.1805 C.ar      1 MOL1       -0.0878
     23 C            6.3906    1.2725    0.1593 C.ar      1 MOL1       -0.0460
     24 C            5.1030    1.7696    0.0089 C.ar      1 MOL1       -0.0050
     25 C            4.0612    0.8611   -0.1025 C.ar      1 MOL1       -0.0281
     26 C            4.8326    3.2423   -0.0182 C.2       1 MOL1        0.1554
     27 N            5.7441    4.0994   -0.3948 N.2       1 MOL1       -0.5835
     28 N            3.6147    3.6935    0.3555 N.am      1 MOL1       -0.4206
     29 C           -0.5271   -1.2935   -0.1398 C.ar      1 MOL1       -0.1057
     30 C           -1.6691   -2.0759    0.0020 C.ar      1 MOL1        0.0456
     31  H          -5.2195    5.4037    0.1093 H         1 MOL1        0.2753
     32  H          -3.9216    4.6190    0.1347 H         1 MOL1        0.2753
     33  H          -7.1953    4.3676   -0.1334 H         1 MOL1        0.2200
     34  H          -3.0061    2.7944    0.8641 H         1 MOL1        0.0910
     35  H          -1.9844    0.6800    0.8981 H         1 MOL1        0.0919
     36  H          -5.3530   -0.9772   -0.7978 H         1 MOL1        0.0919
     37  H          -6.3909    1.1384   -0.8013 H         1 MOL1        0.0910
     38  H          -4.6764   -2.8552    0.2257 H         1 MOL1        0.0999
     39  H          -3.2098   -4.8438    0.2879 H         1 MOL1        0.0919
     40  H          -0.2594   -5.0795    0.1474 H         1 MOL1        0.0910
     41  H           1.6812   -3.7530   -0.0559 H         1 MOL1        0.0919
     42  H           1.7351   -0.2646   -0.3895 H         1 MOL1        0.2056
     43  H           5.7567   -1.9440    0.0933 H         1 MOL1        0.0910
     44  H           7.5556   -0.4248    0.2831 H         1 MOL1        0.0906
     45  H           7.1633    1.8967    0.2590 H         1 MOL1        0.0910
     46  H           3.1322    1.2089   -0.2079 H         1 MOL1        0.0914
     47  H           6.5993    3.6717   -0.6791 H         1 MOL1        0.2200
     48  H           2.9993    3.1434    0.6574 H         1 MOL1        0.2753
     49  H           3.4382    4.5531    0.3015 H         1 MOL1        0.2753
     50  H          -0.5933   -0.3015   -0.2292 H         1 MOL1        0.0932
@<TRIPOS>BOND
     1      1      2 am
     2      2      3 2 
     3      2      4 1 
     4      4      5 ar
     5      5      6 ar
     6      6      7 ar
     7      7      8 ar
     8      7     10 1 
     9      8      9 ar
    10      9      4 ar
    11     10     11 ar
    12     11     12 ar
    13     12     13 ar
    14     13     14 ar
    15     14     15 ar
    16     15     16 ar
    17     16     17 1 
    18     16     29 ar
    19     17     18 am
    20     18     19 2 
    21     18     20 1 
    22     20     21 ar
    23     21     22 ar
    24     22     23 ar
    25     23     24 ar
    26     24     25 ar
    27     24     26 1 
    28     25     20 ar
    29     26     27 2 
    30     26     28 am
    31     29     30 ar
    32     30     10 ar
    33     30     13 ar
    34      1     31 1 
    35      1     32 1 
    36      3     33 1 
    37      5     34 1 
    38      6     35 1 
    39      8     36 1 
    40      9     37 1 
    41     11     38 1 
    42     12     39 1 
    43     14     40 1 
    44     15     41 1 
    45     17     42 1 
    46     21     43 1 
    47     22     44 1 
    48     23     45 1 
    49     25     46 1 
    50     27     47 1 
    51     28     48 1 
    52     28     49 1 
    53     29     50 1 
@<TRIPOS>SUBSTRUCTURE
     1 MOL1         1 MOLECULE          1 A
