# Molecule written by the XED library from Cresset
@<TRIPOS>MOLECULE
CHEMBL181550
    42     43      1
SMALL
USER_CHARGES
@<TRIPOS>ATOM
      1 N           -4.7238   -3.4446   -0.1565 N.3       1 MOL1       -0.6086
      2 C           -3.5051   -2.6756    0.1242 C.3       1 MOL1       -0.0191
      3 C           -3.6868   -1.1618    0.0893 C.ar      1 MOL1       -0.0513
      4 C           -4.9566   -0.6316    0.1866 C.ar      1 MOL1       -0.0779
      5 C           -5.1595    0.7269    0.1485 C.ar      1 MOL1       -0.0637
      6 C           -4.0842    1.5718    0.0096 C.ar      1 MOL1        0.0436
      7 Cl          -4.3300    3.2922   -0.0470 Cl        1 MOL1       -0.1082
      8 C           -2.8138    1.0499   -0.0830 C.ar      1 MOL1       -0.0576
      9 C           -2.6005   -0.3124   -0.0344 C.ar      1 MOL1       -0.0323
     10 C           -1.1757   -0.8584   -0.1318 C.3       1 MOL1        0.1154
     11 N           -0.1079    0.0588    0.2977 N.am      1 MOL1       -0.3832
     12 C            1.1457   -0.1303   -0.1459 C.2       1 MOL1        0.3241
     13 O            1.4941   -1.0172   -0.9128 O.2       1 MOL1       -0.4176
     14 C            2.1191    0.8750    0.4290 C.3       1 MOL1        0.1604
     15 C            1.9499    2.2599   -0.2156 C.3       1 MOL1       -0.0562
     16 C            3.3312    2.9069   -0.0844 C.3       1 MOL1       -0.0686
     17 C            4.3095    1.7528   -0.3400 C.3       1 MOL1        0.0725
     18 N            3.5321    0.5899    0.1274 N.am      1 MOL1       -0.3902
     19 C            4.0446   -0.6469    0.2915 C.2       1 MOL1        0.2961
     20 O            3.3982   -1.6221    0.6481 O.2       1 MOL1       -0.4164
     21 C            5.5241   -0.7590   -0.0055 C.3       1 MOL1        0.0557
     22 O            5.8939   -2.1452    0.0064 O.3       1 MOL1       -0.4361
     23 H            1.9927    0.9589    1.6196 H         1 MOL1        0.0678
     24  H          -5.1544   -3.1817   -1.0511 H         1 MOL1        0.2740
     25  H          -4.5740   -4.4578   -0.0802 H         1 MOL1        0.2740
     26  H          -2.6947   -2.9791   -0.7070 H         1 MOL1        0.0594
     27  H          -3.0923   -2.9904    1.2059 H         1 MOL1        0.0594
     28  H          -5.7405   -1.2446    0.2833 H         1 MOL1        0.0908
     29  H          -6.0848    1.0990    0.2187 H         1 MOL1        0.0939
     30  H          -2.0346    1.6682   -0.1839 H         1 MOL1        0.0941
     31  H          -0.9691   -1.1794   -1.2696 H         1 MOL1        0.0620
     32  H          -1.0668   -1.8280    0.5675 H         1 MOL1        0.0620
     33  H          -0.2884    0.7149    0.8577 H         1 MOL1        0.2040
     34  H           1.6901    2.1232   -1.3792 H         1 MOL1        0.0479
     35  H           1.0995    2.9068    0.3305 H         1 MOL1        0.0479
     36  H           3.4841    3.8030   -0.8678 H         1 MOL1        0.0474
     37  H           3.4737    3.3022    1.0395 H         1 MOL1        0.0474
     38  H           5.3236    1.9204    0.2785 H         1 MOL1        0.0593
     39  H           4.5260    1.6668   -1.5172 H         1 MOL1        0.0593
     40  H           5.7863   -0.3096   -1.0864 H         1 MOL1        0.0698
     41  H           6.1580   -0.1961    0.8435 H         1 MOL1        0.0698
     42  H           6.8757   -2.2636   -0.1782 H         1 MOL1        0.3291
@<TRIPOS>BOND
     1      1      2 1 
     2      2      3 1 
     3      3      4 ar
     4      4      5 ar
     5      5      6 ar
     6      6      7 1 
     7      6      8 ar
     8      8      9 ar
     9      9      3 ar
    10      9     10 1 
    11     10     11 1 
    12     11     12 am
    13     12     13 2 
    14     12     14 1 
    15     14     15 1 
    16     15     16 1 
    17     16     17 1 
    18     17     18 1 
    19     18     14 1 
    20     18     19 am
    21     19     20 2 
    22     19     21 1 
    23     21     22 1 
    24      1     24 1 
    25      1     25 1 
    26      2     26 1 
    27      2     27 1 
    28      4     28 1 
    29      5     29 1 
    30      8     30 1 
    31     10     31 1 
    32     10     32 1 
    33     11     33 1 
    34     14     23 1 
    35     15     34 1 
    36     15     35 1 
    37     16     36 1 
    38     16     37 1 
    39     17     38 1 
    40     17     39 1 
    41     21     40 1 
    42     21     41 1 
    43     22     42 1 
@<TRIPOS>SUBSTRUCTURE
     1 MOL1         1 MOLECULE          1 A
