# Molecule written by the XED library from Cresset
@<TRIPOS>MOLECULE
CHEMBL209022
    45     48      1
SMALL
USER_CHARGES
@<TRIPOS>ATOM
      1 N           -8.9439    0.8217    0.0038 N.am      1 MOL1       -0.3827
      2 C           -7.8887   -0.0138   -0.0025 C.2       1 MOL1        0.4100
      3 O           -8.0331   -1.2406   -0.0011 O.2       1 MOL1       -0.4588
      4 N           -6.6772    0.5799   -0.0094 N.am      1 MOL1       -0.3903
      5 C           -5.4602   -0.2510    0.0030 C.3       1 MOL1        0.1150
      6 C           -4.1134    0.4634    0.0020 C.ar      1 MOL1       -0.0422
      7 C           -3.9604    1.8323    0.0030 C.ar      1 MOL1       -0.0871
      8 C           -2.6991    2.3758    0.0024 C.ar      1 MOL1       -0.0891
      9 C           -1.5963    1.5582    0.0011 C.ar      1 MOL1       -0.0848
     10 C           -1.7001    0.1729    0.0006 C.ar      1 MOL1       -0.0174
     11 C           -2.9955   -0.3384    0.0008 C.ar      1 MOL1       -0.0784
     12 C           -0.5090   -0.6937   -0.0001 C.ar      1 MOL1       -0.0157
     13 C           -0.6742   -2.0744   -0.0005 C.ar      1 MOL1       -0.0841
     14 C            0.3908   -2.9398   -0.0008 C.ar      1 MOL1       -0.1042
     15 C            1.6714   -2.4522   -0.0007 C.ar      1 MOL1       -0.0837
     16 C            1.9009   -1.0897   -0.0003 C.ar      1 MOL1       -0.0058
     17 C            0.8099   -0.2190   -0.0001 C.ar      1 MOL1        0.0753
     18 O            1.0424    1.1234    0.0002 O.3       1 MOL1       -0.3781
     19 C            3.2775   -0.6104   -0.0002 C.ar      1 MOL1       -0.0212
     20 C            4.4211   -1.3466   -0.0001 C.ar      1 MOL1       -0.1802
     21 C            5.5148   -0.4655   -0.0001 C.ar      1 MOL1       -0.0357
     22 C            6.8731   -0.6092    0.0000 C.ar      1 MOL1        0.2072
     23 N            7.6246    0.4756    0.0001 N.pl3     1 MOL1       -0.0816
     24 C            7.0784    1.7956    0.0001 C.ar      1 MOL1        0.0590
     25 C            5.7461    1.9754    0.0001 C.ar      1 MOL1       -0.0817
     26 C            4.9347    0.8169    0.0000 C.ar      1 MOL1        0.0279
     27 N            3.6048    0.7160   -0.0001 N.ar      1 MOL1       -0.4805
     28 H            8.4996    0.3819    0.0001 H         1 MOL1        0.2038
     29  H          -9.7603    0.4933    0.0176 H         1 MOL1        0.2031
     30  H          -8.8254    1.6937   -0.0054 H         1 MOL1        0.2031
     31  H          -6.6170    1.4565   -0.0210 H         1 MOL1        0.2047
     32  H          -5.5036   -0.9469    0.9796 H         1 MOL1        0.0620
     33  H          -5.4958   -0.9649   -0.9608 H         1 MOL1        0.0620
     34  H          -4.7588    2.4324    0.0042 H         1 MOL1        0.0908
     35  H          -2.5840    3.3691    0.0029 H         1 MOL1        0.0906
     36  H          -0.6946    1.9827    0.0008 H         1 MOL1        0.0910
     37  H          -3.1353   -1.3249    0.0004 H         1 MOL1        0.0912
     38  H          -1.5893   -2.4671   -0.0006 H         1 MOL1        0.0910
     39  H           0.2325   -3.9272   -0.0010 H         1 MOL1        0.0906
     40  H           2.4407   -3.0893   -0.0008 H         1 MOL1        0.0910
     41  H           2.0222    1.3417    0.0004 H         1 MOL1        0.3295
     42  H           4.4788   -2.3444   -0.0001 H         1 MOL1        0.0923
     43  H           7.2900   -1.5183   -0.0001 H         1 MOL1        0.0999
     44  H           7.6885    2.5880    0.0001 H         1 MOL1        0.0995
     45  H           5.3448    2.8914    0.0001 H         1 MOL1        0.0928
@<TRIPOS>BOND
     1      1      2 am
     2      2      3 2 
     3      2      4 am
     4      4      5 1 
     5      5      6 1 
     6      6      7 ar
     7      7      8 ar
     8      8      9 ar
     9      9     10 ar
    10     10     11 ar
    11     10     12 1 
    12     11      6 ar
    13     12     13 ar
    14     13     14 ar
    15     14     15 ar
    16     15     16 ar
    17     16     17 ar
    18     16     19 1 
    19     17     12 ar
    20     17     18 1 
    21     19     20 ar
    22     20     21 ar
    23     21     22 ar
    24     22     23 ar
    25     23     24 ar
    26     24     25 ar
    27     25     26 ar
    28     26     21 1 
    29     26     27 ar
    30     27     19 ar
    31      1     29 1 
    32      1     30 1 
    33      4     31 1 
    34      5     32 1 
    35      5     33 1 
    36      7     34 1 
    37      8     35 1 
    38      9     36 1 
    39     11     37 1 
    40     13     38 1 
    41     14     39 1 
    42     15     40 1 
    43     18     41 1 
    44     20     42 1 
    45     22     43 1 
    46     23     28 1 
    47     24     44 1 
    48     25     45 1 
@<TRIPOS>SUBSTRUCTURE
     1 MOL1         1 MOLECULE          1 A
