# Molecule written by the XED library from Cresset
@<TRIPOS>MOLECULE
CHEMBL303992
    45     48      1
SMALL
USER_CHARGES
@<TRIPOS>ATOM
      1 N           -7.7467    0.8233   -0.0504 N.am      1 MOL1       -0.4220
      2 C           -6.7851   -0.1326   -0.0462 C.2       1 MOL1        0.1479
      3 N           -7.0747   -1.4044   -0.0903 N.2       1 MOL1       -0.5921
      4 C           -5.3436    0.2348    0.0080 C.ar      1 MOL1       -0.0232
      5 C           -4.9077    1.5720    0.1543 C.ar      1 MOL1       -0.0740
      6 C           -3.5826    1.9023    0.2074 C.ar      1 MOL1       -0.0908
      7 C           -2.6790    0.8549    0.1100 C.ar      1 MOL1        0.0822
      8 N           -1.3021    0.9447    0.1372 N.pl3     1 MOL1       -0.1582
      9 C           -0.8716   -0.3256    0.0007 C.ar      1 MOL1        0.2195
     10 N           -1.9025   -1.1687   -0.1014 N.ar      1 MOL1       -0.4001
     11 C           -3.0691   -0.4448   -0.0344 C.ar      1 MOL1        0.0255
     12 C           -4.4193   -0.7828   -0.0869 C.ar      1 MOL1       -0.0500
     13 C            0.5248   -0.7008   -0.0469 C.ar      1 MOL1        0.0056
     14 C            0.8079   -2.0416   -0.2679 C.ar      1 MOL1       -0.0755
     15 C            2.1028   -2.4806   -0.3512 C.ar      1 MOL1       -0.1008
     16 C            3.1453   -1.5883   -0.2170 C.ar      1 MOL1       -0.0676
     17 C            2.8999   -0.2480    0.0099 C.ar      1 MOL1        0.0701
     18 O            3.8872    0.6574    0.1477 O.3       1 MOL1       -0.1955
     19 C            5.2197    0.3576   -0.3334 C.3       1 MOL1       -0.0102
     20 C            5.9675    1.6562   -0.6654 C.3       1 MOL1       -0.0635
     21 C            7.4368    1.2229   -0.6982 C.3       1 MOL1       -0.0879
     22 C            7.5586    0.1949    0.4390 C.3       1 MOL1       -0.0879
     23 C            6.1304   -0.3241    0.7092 C.3       1 MOL1       -0.0635
     24 C            1.5840    0.1897    0.1029 C.ar      1 MOL1        0.0899
     25 O            1.3337    1.5086    0.3382 O.3       1 MOL1       -0.3756
     26 H           -0.8202    1.6753    0.2178 H         1 MOL1        0.2049
     27  H          -8.5971    0.5987   -0.0741 H         1 MOL1        0.2753
     28  H          -7.5326    1.6750   -0.0319 H         1 MOL1        0.2753
     29  H          -8.0606   -1.5688   -0.1242 H         1 MOL1        0.2200
     30  H          -5.5835    2.3039    0.2232 H         1 MOL1        0.0910
     31  H          -3.2804    2.8499    0.3113 H         1 MOL1        0.0919
     32  H          -4.7089   -1.7343   -0.1908 H         1 MOL1        0.0923
     33  H           0.0576   -2.6945   -0.3715 H         1 MOL1        0.0910
     34  H           2.2921   -3.4491   -0.5126 H         1 MOL1        0.0906
     35  H           4.0856   -1.9179   -0.2850 H         1 MOL1        0.0924
     36  H           5.2038   -0.2858   -1.3472 H         1 MOL1        0.0667
     37  H           5.8219    2.4568    0.2174 H         1 MOL1        0.0482
     38  H           5.6139    2.1191   -1.7144 H         1 MOL1        0.0482
     39  H           7.6561    0.6922   -1.7523 H         1 MOL1        0.0460
     40  H           8.1765    2.1546   -0.5405 H         1 MOL1        0.0460
     41  H           7.9881    0.7427    1.4173 H         1 MOL1        0.0460
     42  H           8.3005   -0.6951    0.1240 H         1 MOL1        0.0460
     43  H           5.7936   -0.0107    1.8188 H         1 MOL1        0.0482
     44  H           6.0830   -1.5183    0.6017 H         1 MOL1        0.0482
     45  H           2.1801    2.0423    0.4377 H         1 MOL1        0.3295
@<TRIPOS>BOND
     1      1      2 am
     2      2      3 2 
     3      2      4 1 
     4      4      5 ar
     5      5      6 ar
     6      6      7 ar
     7      7      8 ar
     8      8      9 ar
     9      9     10 ar
    10      9     13 1 
    11     10     11 ar
    12     11      7 ar
    13     11     12 ar
    14     12      4 ar
    15     13     14 ar
    16     14     15 ar
    17     15     16 ar
    18     16     17 ar
    19     17     18 1 
    20     17     24 ar
    21     18     19 1 
    22     19     20 1 
    23     20     21 1 
    24     21     22 1 
    25     22     23 1 
    26     23     19 1 
    27     24     13 ar
    28     24     25 1 
    29      1     27 1 
    30      1     28 1 
    31      3     29 1 
    32      5     30 1 
    33      6     31 1 
    34      8     26 1 
    35     12     32 1 
    36     14     33 1 
    37     15     34 1 
    38     16     35 1 
    39     19     36 1 
    40     20     37 1 
    41     20     38 1 
    42     21     39 1 
    43     21     40 1 
    44     22     41 1 
    45     22     42 1 
    46     23     43 1 
    47     23     44 1 
    48     25     45 1 
@<TRIPOS>SUBSTRUCTURE
     1 MOL1         1 MOLECULE          1 A
