# Molecule written by the XED library from Cresset
@<TRIPOS>MOLECULE
CHEMBL358918
    55     57      1
SMALL
USER_CHARGES
@<TRIPOS>ATOM
      1 N            2.7606   -4.6495   -0.5295 N.am      1 MOL1       -0.4216
      2 C            2.4107   -3.7771    0.4476 C.2       1 MOL1        0.1561
      3 N            2.1033   -4.1713    1.6522 N.2       1 MOL1       -0.5779
      4 C            2.3666   -2.3143    0.1793 C.ar      1 MOL1       -0.0026
      5 C            2.4775   -1.7801   -1.0982 C.ar      1 MOL1       -0.0581
      6 C            2.4200   -0.4257   -1.2977 C.ar      1 MOL1       -0.0722
      7 C            2.2423    0.4358   -0.2276 C.ar      1 MOL1       -0.0127
      8 C            2.1948    1.8797   -0.5169 C.2       1 MOL1       -0.0303
      9 C            1.1117    2.6769   -0.3541 C.2       1 MOL1       -0.0280
     10 C            1.2753    4.0861   -0.8816 C.3       1 MOL1       -0.0457
     11 C            1.2417    5.0750    0.2976 C.3       1 MOL1       -0.0868
     12 C           -0.1078    5.8076    0.4080 C.3       1 MOL1       -0.0911
     13 C           -1.2608    4.8845    0.8501 C.3       1 MOL1       -0.0868
     14 C           -1.8595    4.0567   -0.3079 C.3       1 MOL1       -0.0457
     15 C           -1.4082    2.6076   -0.2796 C.2       1 MOL1       -0.0280
     16 C           -2.3991    1.7166   -0.5367 C.2       1 MOL1       -0.0303
     17 C           -2.2909    0.2402   -0.4940 C.ar      1 MOL1       -0.0127
     18 C           -1.1079   -0.4742   -0.6194 C.ar      1 MOL1       -0.0722
     19 C           -1.1037   -1.8432   -0.5435 C.ar      1 MOL1       -0.0581
     20 C           -2.2810   -2.5530   -0.3490 C.ar      1 MOL1       -0.0026
     21 C           -3.4676   -1.8388   -0.2574 C.ar      1 MOL1       -0.0581
     22 C           -3.4704   -0.4701   -0.3295 C.ar      1 MOL1       -0.0722
     23 C           -2.2652   -4.0410   -0.2474 C.2       1 MOL1        0.1561
     24 N           -3.1046   -4.6700    0.5302 N.2       1 MOL1       -0.5779
     25 N           -1.3582   -4.7362   -0.9684 N.am      1 MOL1       -0.4216
     26 C           -0.1199    2.1358    0.1996 C.2       1 MOL1        0.1799
     27 O           -0.1364    1.3022    1.0930 O.2       1 MOL1       -0.3945
     28 C            2.1486   -0.0861    1.0523 C.ar      1 MOL1       -0.0722
     29 C            2.2054   -1.4422    1.2472 C.ar      1 MOL1       -0.0581
     30  H           2.7636   -5.5155   -0.3735 H         1 MOL1        0.2753
     31  H           2.9930   -4.3595   -1.3258 H         1 MOL1        0.2753
     32  H           2.1590   -5.1650    1.7521 H         1 MOL1        0.2200
     33  H           2.5983   -2.3834   -1.8848 H         1 MOL1        0.0910
     34  H           2.5022   -0.0562   -2.2234 H         1 MOL1        0.0910
     35  H           3.0071    2.2697   -0.9256 H         1 MOL1        0.0912
     36  H           2.3181    4.2142   -1.4619 H         1 MOL1        0.0492
     37  H           0.4214    4.3326   -1.6829 H         1 MOL1        0.0492
     38  H           1.4681    4.4901    1.3205 H         1 MOL1        0.0463
     39  H           2.0856    5.9136    0.1371 H         1 MOL1        0.0463
     40  H           0.0353    6.6470    1.2543 H         1 MOL1        0.0460
     41  H          -0.3753    6.3601   -0.6229 H         1 MOL1        0.0460
     42  H          -0.8941    4.1536    1.7283 H         1 MOL1        0.0463
     43  H          -2.1257    5.5939    1.2873 H         1 MOL1        0.0463
     44  H          -1.6899    4.5653   -1.3800 H         1 MOL1        0.0492
     45  H          -3.0451    4.0796   -0.1208 H         1 MOL1        0.0492
     46  H          -3.2906    2.0782   -0.7730 H         1 MOL1        0.0912
     47  H          -0.2471    0.0159   -0.7538 H         1 MOL1        0.0910
     48  H          -0.2369   -2.3356   -0.6247 H         1 MOL1        0.0910
     49  H          -4.3342   -2.3222   -0.1389 H         1 MOL1        0.0910
     50  H          -4.3362    0.0246   -0.2564 H         1 MOL1        0.0910
     51  H          -3.7071   -4.0555    1.0381 H         1 MOL1        0.2200
     52  H          -0.7975   -4.3220   -1.5050 H         1 MOL1        0.2753
     53  H          -1.3301   -5.6132   -0.9029 H         1 MOL1        0.2753
     54  H           2.0350    0.5264    1.8344 H         1 MOL1        0.0910
     55  H           2.1297   -1.8093    2.1742 H         1 MOL1        0.0910
@<TRIPOS>BOND
     1      1      2 am
     2      2      3 2 
     3      2      4 1 
     4      4      5 ar
     5      5      6 ar
     6      6      7 ar
     7      7      8 1 
     8      7     28 ar
     9      8      9 2 
    10      9     10 1 
    11      9     26 1 
    12     10     11 1 
    13     11     12 1 
    14     12     13 1 
    15     13     14 1 
    16     14     15 1 
    17     15     16 2 
    18     15     26 1 
    19     16     17 1 
    20     17     18 ar
    21     18     19 ar
    22     19     20 ar
    23     20     21 ar
    24     20     23 1 
    25     21     22 ar
    26     22     17 ar
    27     23     24 2 
    28     23     25 am
    29     26     27 2 
    30     28     29 ar
    31     29      4 ar
    32      1     30 1 
    33      1     31 1 
    34      3     32 1 
    35      5     33 1 
    36      6     34 1 
    37      8     35 1 
    38     10     36 1 
    39     10     37 1 
    40     11     38 1 
    41     11     39 1 
    42     12     40 1 
    43     12     41 1 
    44     13     42 1 
    45     13     43 1 
    46     14     44 1 
    47     14     45 1 
    48     16     46 1 
    49     18     47 1 
    50     19     48 1 
    51     21     49 1 
    52     22     50 1 
    53     24     51 1 
    54     25     52 1 
    55     25     53 1 
    56     28     54 1 
    57     29     55 1 
@<TRIPOS>SUBSTRUCTURE
     1 MOL1         1 MOLECULE          1 A
