# Molecule written by the XED library from Cresset
@<TRIPOS>MOLECULE
CHEMBL59704
    43     46      1
SMALL
USER_CHARGES
@<TRIPOS>ATOM
      1 N           -7.9925    0.8735   -0.0596 N.am      1 MOL1       -0.4220
      2 C           -7.0563   -0.1076   -0.0520 C.2       1 MOL1        0.1473
      3 N           -7.3809   -1.3719   -0.0413 N.2       1 MOL1       -0.5935
      4 C           -5.6052    0.2238   -0.0492 C.ar      1 MOL1       -0.0267
      5 C           -5.1371    1.5499   -0.1582 C.ar      1 MOL1       -0.0765
      6 C           -3.8050    1.8500   -0.1488 C.ar      1 MOL1       -0.0936
      7 C           -2.9152    0.7912   -0.0303 C.ar      1 MOL1        0.0666
      8 N           -1.5567    0.9033    0.0001 N.pl3     1 MOL1       -0.1768
      9 C           -1.1059   -0.3966    0.1199 C.ar      1 MOL1        0.0618
     10 C           -2.1363   -1.2632    0.1677 C.ar      1 MOL1       -0.1486
     11 C           -3.3440   -0.5134    0.0708 C.ar      1 MOL1       -0.0394
     12 C           -4.7012   -0.8114    0.0635 C.ar      1 MOL1       -0.0593
     13 C            0.3106   -0.7248    0.1906 C.ar      1 MOL1       -0.0045
     14 C            0.6952   -2.0197    0.5137 C.ar      1 MOL1       -0.0927
     15 C            2.0194   -2.3633    0.6142 C.ar      1 MOL1       -0.1016
     16 C            2.9966   -1.4193    0.3901 C.ar      1 MOL1       -0.0798
     17 C            2.6521   -0.1229    0.0542 C.ar      1 MOL1        0.0689
     18 O            3.5783    0.8841   -0.1815 O.3       1 MOL1       -0.1415
     19 C            4.9099    0.6153   -0.1268 C.ar      1 MOL1        0.0612
     20 C            5.5017   -0.2740   -1.0072 C.ar      1 MOL1       -0.0829
     21 C            6.8555   -0.5027   -0.9552 C.ar      1 MOL1       -0.0868
     22 C            7.6312    0.1575   -0.0292 C.ar      1 MOL1       -0.1074
     23 C            7.0507    1.0476    0.8457 C.ar      1 MOL1       -0.0868
     24 C            5.6962    1.2763    0.7975 C.ar      1 MOL1       -0.0829
     25 C            1.3119    0.2121   -0.0449 C.ar      1 MOL1        0.0735
     26 O            0.9958    1.4935   -0.3819 O.3       1 MOL1       -0.3778
     27 H           -1.0826    1.6419   -0.0327 H         1 MOL1        0.2043
     28  H          -8.8488    0.6712   -0.0645 H         1 MOL1        0.2753
     29  H          -7.7562    1.7196   -0.0557 H         1 MOL1        0.2753
     30  H          -8.3713   -1.5095   -0.0423 H         1 MOL1        0.2200
     31  H          -5.7932    2.2974   -0.2457 H         1 MOL1        0.0910
     32  H          -3.4840    2.7942   -0.2251 H         1 MOL1        0.0919
     33  H          -2.0704   -2.2567    0.2545 H         1 MOL1        0.0923
     34  H          -5.0154   -1.7578    0.1399 H         1 MOL1        0.0914
     35  H          -0.0014   -2.7146    0.6832 H         1 MOL1        0.0910
     36  H           2.2746   -3.3003    0.8538 H         1 MOL1        0.0906
     37  H           3.9584   -1.6784    0.4712 H         1 MOL1        0.0924
     38  H           4.9411   -0.7509   -1.6847 H         1 MOL1        0.0924
     39  H           7.2774   -1.1469   -1.5926 H         1 MOL1        0.0906
     40  H           8.6163   -0.0092    0.0061 H         1 MOL1        0.0906
     41  H           7.6158    1.5302    1.5147 H         1 MOL1        0.0906
     42  H           5.2784    1.9280    1.4305 H         1 MOL1        0.0924
     43  H           1.8194    2.0593   -0.5042 H         1 MOL1        0.3295
@<TRIPOS>BOND
     1      1      2 am
     2      2      3 2 
     3      2      4 1 
     4      4      5 ar
     5      5      6 ar
     6      6      7 ar
     7      7      8 ar
     8      8      9 ar
     9      9     10 ar
    10      9     13 1 
    11     10     11 ar
    12     11      7 ar
    13     11     12 ar
    14     12      4 ar
    15     13     14 ar
    16     14     15 ar
    17     15     16 ar
    18     16     17 ar
    19     17     18 1 
    20     17     25 ar
    21     18     19 1 
    22     19     20 ar
    23     20     21 ar
    24     21     22 ar
    25     22     23 ar
    26     23     24 ar
    27     24     19 ar
    28     25     13 ar
    29     25     26 1 
    30      1     28 1 
    31      1     29 1 
    32      3     30 1 
    33      5     31 1 
    34      6     32 1 
    35      8     27 1 
    36     10     33 1 
    37     12     34 1 
    38     14     35 1 
    39     15     36 1 
    40     16     37 1 
    41     20     38 1 
    42     21     39 1 
    43     22     40 1 
    44     23     41 1 
    45     24     42 1 
    46     26     43 1 
@<TRIPOS>SUBSTRUCTURE
     1 MOL1         1 MOLECULE          1 A
