# Molecule written by the XED library from Cresset
@<TRIPOS>MOLECULE
CHEMBL151480
    51     53      1
SMALL
USER_CHARGES
@<TRIPOS>ATOM
      1 N           -7.9249   -0.7577    0.0728 N.am      1 MOL1       -0.4216
      2 C           -6.8740   -1.6142    0.0664 C.2       1 MOL1        0.1561
      3 N           -7.0319   -2.9043    0.1734 N.2       1 MOL1       -0.5779
      4 C           -5.4795   -1.1072   -0.0584 C.ar      1 MOL1       -0.0026
      5 C           -5.1761    0.2095   -0.3792 C.ar      1 MOL1       -0.0581
      6 C           -3.8744    0.6280   -0.4878 C.ar      1 MOL1       -0.0721
      7 C           -2.8165   -0.2479   -0.2746 C.ar      1 MOL1       -0.0127
      8 C           -1.3747    0.0880   -0.3951 C.2       1 MOL1       -0.0302
      9 C           -0.7881    1.2972   -0.1989 C.2       1 MOL1       -0.0280
     10 C           -1.6361    2.4411    0.3302 C.3       1 MOL1       -0.0457
     11 C           -0.9350    3.5744    1.0796 C.3       1 MOL1       -0.0863
     12 C           -0.0419    4.3403    0.0954 C.3       1 MOL1       -0.0863
     13 C            1.3850    3.8190    0.2422 C.3       1 MOL1       -0.0457
     14 C            1.5675    2.3327    0.0061 C.2       1 MOL1       -0.0297
     15 C            2.8821    2.0676    0.2215 C.2       1 MOL1       -0.0295
     16 C            3.5501    0.7469    0.1879 C.ar      1 MOL1       -0.0155
     17 C            2.9812   -0.4441    0.6175 C.ar      1 MOL1       -0.0717
     18 C            3.6934   -1.6162    0.5778 C.ar      1 MOL1       -0.0595
     19 C            5.0047   -1.6452    0.1156 C.ar      1 MOL1        0.0090
     20 C            5.5728   -0.4476   -0.2976 C.ar      1 MOL1       -0.0595
     21 C            4.8618    0.7231   -0.2600 C.ar      1 MOL1       -0.0717
     22 C            5.8125   -2.8933    0.0572 C.2       1 MOL1        0.3133
     23 O            7.0153   -2.7770   -0.1667 O.2       1 MOL1       -0.4120
     24 N            5.2323   -4.0952    0.2402 N.am      1 MOL1       -0.3850
     25 C            0.6553    1.2729   -0.4146 C.2       1 MOL1        0.1798
     26 O            1.0831    0.3006   -1.0212 O.2       1 MOL1       -0.3948
     27 C           -3.1241   -1.5647    0.0362 C.ar      1 MOL1       -0.0721
     28 C           -4.4248   -1.9848    0.1429 C.ar      1 MOL1       -0.0581
     29  H          -8.7480   -1.0638    0.1315 H         1 MOL1        0.2753
     30  H          -7.7952    0.1100    0.0241 H         1 MOL1        0.2753
     31  H          -7.9944   -3.1643    0.2529 H         1 MOL1        0.2200
     32  H          -5.9123    0.8653   -0.5398 H         1 MOL1        0.0910
     33  H          -3.6932    1.5776   -0.7305 H         1 MOL1        0.0910
     34  H          -0.7756   -0.6603   -0.6397 H         1 MOL1        0.0912
     35  H          -2.2046    2.9548   -0.5931 H         1 MOL1        0.0492
     36  H          -2.4444    2.0022    1.1001 H         1 MOL1        0.0492
     37  H          -0.3258    3.1356    2.0160 H         1 MOL1        0.0463
     38  H          -1.7888    4.3126    1.4881 H         1 MOL1        0.0463
     39  H          -0.0337    5.5061    0.3839 H         1 MOL1        0.0463
     40  H          -0.3930    4.2362   -1.0481 H         1 MOL1        0.0463
     41  H           2.0680    4.4313   -0.5330 H         1 MOL1        0.0492
     42  H           1.7470    4.0891    1.3550 H         1 MOL1        0.0492
     43  H           3.4756    2.8373    0.4283 H         1 MOL1        0.0912
     44  H           2.0409   -0.4489    0.9587 H         1 MOL1        0.0910
     45  H           3.2582   -2.4585    0.8920 H         1 MOL1        0.0910
     46  H           6.5173   -0.4398   -0.6268 H         1 MOL1        0.0910
     47  H           5.2956    1.5731   -0.5588 H         1 MOL1        0.0910
     48  H           4.3668   -4.1630    0.3760 H         1 MOL1        0.2026
     49  H           5.7245   -4.8251    0.2181 H         1 MOL1        0.2026
     50  H          -2.3833   -2.2198    0.1849 H         1 MOL1        0.0910
     51  H          -4.6161   -2.9402    0.3680 H         1 MOL1        0.0910
@<TRIPOS>BOND
     1      1      2 am
     2      2      3 2 
     3      2      4 1 
     4      4      5 ar
     5      5      6 ar
     6      6      7 ar
     7      7      8 1 
     8      7     27 ar
     9      8      9 2 
    10      9     10 1 
    11      9     25 1 
    12     10     11 1 
    13     11     12 1 
    14     12     13 1 
    15     13     14 1 
    16     14     15 2 
    17     14     25 1 
    18     15     16 1 
    19     16     17 ar
    20     17     18 ar
    21     18     19 ar
    22     19     20 ar
    23     19     22 1 
    24     20     21 ar
    25     21     16 ar
    26     22     23 2 
    27     22     24 am
    28     25     26 2 
    29     27     28 ar
    30     28      4 ar
    31      1     29 1 
    32      1     30 1 
    33      3     31 1 
    34      5     32 1 
    35      6     33 1 
    36      8     34 1 
    37     10     35 1 
    38     10     36 1 
    39     11     37 1 
    40     11     38 1 
    41     12     39 1 
    42     12     40 1 
    43     13     41 1 
    44     13     42 1 
    45     15     43 1 
    46     17     44 1 
    47     18     45 1 
    48     20     46 1 
    49     21     47 1 
    50     24     48 1 
    51     24     49 1 
    52     27     50 1 
    53     28     51 1 
@<TRIPOS>SUBSTRUCTURE
     1 MOL1         1 MOLECULE          1 A
