# Molecule written by the XED library from Cresset
@<TRIPOS>MOLECULE
CHEMBL316334
    34     36      1
SMALL
USER_CHARGES
@<TRIPOS>ATOM
      1 N           -6.8685   -0.2141    0.0001 N.am      1 MOL1       -0.4220
      2 C           -5.7162   -0.9289    0.0000 C.2       1 MOL1        0.1471
      3 N           -5.7123   -2.2342    0.0000 N.2       1 MOL1       -0.5930
      4 C           -4.3947   -0.2449    0.0000 C.ar      1 MOL1       -0.0266
      5 C           -4.2720    1.1601    0.0000 C.ar      1 MOL1       -0.0764
      6 C           -3.0545    1.7779    0.0000 C.ar      1 MOL1       -0.0936
      7 C           -1.9271    0.9679    0.0000 C.ar      1 MOL1        0.0666
      8 N           -0.6380    1.4112    0.0001 N.pl3     1 MOL1       -0.1768
      9 C            0.1260    0.2606    0.0000 C.ar      1 MOL1        0.0622
     10 C           -0.6592   -0.8361   -0.0001 C.ar      1 MOL1       -0.1480
     11 C           -2.0176   -0.4058   -0.0001 C.ar      1 MOL1       -0.0393
     12 C           -3.2600   -1.0285    0.0000 C.ar      1 MOL1       -0.0592
     13 C            1.5836    0.2967   -0.0001 C.ar      1 MOL1        0.0027
     14 C            2.2841   -0.8859   -0.0001 C.ar      1 MOL1       -0.0657
     15 C            3.6837   -0.9130    0.0000 C.ar      1 MOL1        0.1065
     16 C            4.3884    0.2998    0.0001 C.ar      1 MOL1       -0.0456
     17 C            3.7148    1.4811    0.0000 C.ar      1 MOL1        0.0521
     18 Br           4.6944    3.0896   -0.0001 Br        1 MOL1       -0.0844
     19 C            2.3187    1.4983   -0.0001 C.ar      1 MOL1        0.0897
     20 O            1.6800    2.6817   -0.0002 O.3       1 MOL1       -0.3712
     21 N            4.4124   -2.2044    0.0000 N.pl3     1 MOL1        0.5900
     22 O            3.7566   -3.2416   -0.0003 O.co2     1 MOL1       -0.3866
     23 O            5.6394   -2.1763    0.0004 O.2       1 MOL1       -0.3866
     24 H           -0.3627    2.2449    0.0001 H         1 MOL1        0.2043
     25  H          -7.6467   -0.6248   -0.0001 H         1 MOL1        0.2753
     26  H          -6.8517    0.6639    0.0001 H         1 MOL1        0.2753
     27  H          -6.6361   -2.6175   -0.0001 H         1 MOL1        0.2200
     28  H          -5.0940    1.7268    0.0001 H         1 MOL1        0.0910
     29  H          -2.9780    2.7750    0.0000 H         1 MOL1        0.0919
     30  H          -0.3493   -1.7861   -0.0001 H         1 MOL1        0.0923
     31  H          -3.3297   -2.0261   -0.0001 H         1 MOL1        0.0914
     32  H           1.7861   -1.7515   -0.0001 H         1 MOL1        0.0923
     33  H           5.3884    0.2959    0.0001 H         1 MOL1        0.0947
     34  H           2.3269    3.4525    0.0000 H         1 MOL1        0.3295
@<TRIPOS>BOND
     1      1      2 am
     2      2      3 2 
     3      2      4 1 
     4      4      5 ar
     5      5      6 ar
     6      6      7 ar
     7      7      8 ar
     8      8      9 ar
     9      9     10 ar
    10      9     13 1 
    11     10     11 ar
    12     11      7 ar
    13     11     12 ar
    14     12      4 ar
    15     13     14 ar
    16     14     15 ar
    17     15     16 ar
    18     15     21 1 
    19     16     17 ar
    20     17     18 1 
    21     17     19 ar
    22     19     13 ar
    23     19     20 1 
    24     21     22 1 
    25     21     23 2 
    26      1     25 1 
    27      1     26 1 
    28      3     27 1 
    29      5     28 1 
    30      6     29 1 
    31      8     24 1 
    32     10     30 1 
    33     12     31 1 
    34     14     32 1 
    35     16     33 1 
    36     20     34 1 
@<TRIPOS>SUBSTRUCTURE
     1 MOL1         1 MOLECULE          1 A
