# Molecule written by the XED library from Cresset
@<TRIPOS>MOLECULE
CHEMBL94775
    44     47      1
SMALL
USER_CHARGES
@<TRIPOS>ATOM
      1 N           -7.8335    1.0257    0.0045 N.am      1 MOL1       -0.4220
      2 C           -6.8890    0.0539   -0.0044 C.2       1 MOL1        0.1471
      3 N           -7.2008   -1.2136    0.0002 N.2       1 MOL1       -0.5930
      4 C           -5.4426    0.3995   -0.0188 C.ar      1 MOL1       -0.0266
      5 C           -4.9815    1.7324   -0.0048 C.ar      1 MOL1       -0.0764
      6 C           -3.6496    2.0319   -0.0137 C.ar      1 MOL1       -0.0935
      7 C           -2.7564    0.9695   -0.0370 C.ar      1 MOL1        0.0666
      8 N           -1.3987    1.0832   -0.0414 N.pl3     1 MOL1       -0.1767
      9 C           -0.9416   -0.2200   -0.0585 C.ar      1 MOL1        0.0621
     10 C           -1.9703   -1.0913   -0.0684 C.ar      1 MOL1       -0.1482
     11 C           -3.1798   -0.3401   -0.0528 C.ar      1 MOL1       -0.0394
     12 C           -4.5361   -0.6386   -0.0443 C.ar      1 MOL1       -0.0593
     13 C            0.4782   -0.5464   -0.0471 C.ar      1 MOL1        0.0006
     14 C            0.8448   -1.8657    0.0325 C.ar      1 MOL1       -0.0598
     15 C            2.1902   -2.2437    0.0670 C.ar      1 MOL1        0.1045
     16 C            3.1745   -1.2489    0.0425 C.ar      1 MOL1       -0.0604
     17 C            2.8540    0.0830   -0.0375 C.ar      1 MOL1       -0.0092
     18 C            1.4899    0.4304   -0.1107 C.ar      1 MOL1        0.0914
     19 O            1.1329    1.7164   -0.2648 O.3       1 MOL1       -0.3740
     20 C            3.9477    1.0541   -0.0205 C.ar      1 MOL1       -0.0180
     21 C            5.1998    0.7361   -0.5303 C.ar      1 MOL1       -0.0845
     22 C            6.2334    1.6414   -0.4983 C.ar      1 MOL1       -0.0897
     23 C            6.0424    2.8897    0.0472 C.ar      1 MOL1       -0.0935
     24 C            4.8122    3.2269    0.5612 C.ar      1 MOL1       -0.0897
     25 C            3.7819    2.3187    0.5276 C.ar      1 MOL1       -0.0845
     26 N            2.5669   -3.6770    0.1396 N.pl3     1 MOL1        0.5892
     27 O            1.6675   -4.5118    0.1626 O.co2     1 MOL1       -0.3862
     28 O            3.7596   -3.9641    0.1703 O.2       1 MOL1       -0.3862
     29 H           -0.9278    1.8240   -0.0246 H         1 MOL1        0.2043
     30  H          -8.6874    0.8150    0.0166 H         1 MOL1        0.2753
     31  H          -7.6045    1.8735   -0.0022 H         1 MOL1        0.2753
     32  H          -8.1898   -1.3613    0.0109 H         1 MOL1        0.2200
     33  H          -5.6401    2.4830    0.0131 H         1 MOL1        0.0910
     34  H          -3.3298    2.9794   -0.0025 H         1 MOL1        0.0919
     35  H          -1.9030   -2.0881   -0.0792 H         1 MOL1        0.0923
     36  H          -4.8496   -1.5881   -0.0541 H         1 MOL1        0.0914
     37  H           0.1410   -2.5735    0.0692 H         1 MOL1        0.0923
     38  H           4.1342   -1.5203    0.0943 H         1 MOL1        0.0923
     39  H           1.8768    2.2637   -0.6591 H         1 MOL1        0.3295
     40  H           5.3577   -0.1646   -0.9329 H         1 MOL1        0.0910
     41  H           7.1265    1.3921   -0.8724 H         1 MOL1        0.0906
     42  H           6.7945    3.5486    0.0707 H         1 MOL1        0.0906
     43  H           4.6679    4.1322    0.9611 H         1 MOL1        0.0906
     44  H           2.8953    2.5759    0.9114 H         1 MOL1        0.0910
@<TRIPOS>BOND
     1      1      2 am
     2      2      3 2 
     3      2      4 1 
     4      4      5 ar
     5      5      6 ar
     6      6      7 ar
     7      7      8 ar
     8      8      9 ar
     9      9     10 ar
    10      9     13 1 
    11     10     11 ar
    12     11      7 ar
    13     11     12 ar
    14     12      4 ar
    15     13     14 ar
    16     14     15 ar
    17     15     16 ar
    18     15     26 1 
    19     16     17 ar
    20     17     18 ar
    21     17     20 1 
    22     18     13 ar
    23     18     19 1 
    24     20     21 ar
    25     21     22 ar
    26     22     23 ar
    27     23     24 ar
    28     24     25 ar
    29     25     20 ar
    30     26     27 1 
    31     26     28 2 
    32      1     30 1 
    33      1     31 1 
    34      3     32 1 
    35      5     33 1 
    36      6     34 1 
    37      8     29 1 
    38     10     35 1 
    39     12     36 1 
    40     14     37 1 
    41     16     38 1 
    42     19     39 1 
    43     21     40 1 
    44     22     41 1 
    45     23     42 1 
    46     24     43 1 
    47     25     44 1 
@<TRIPOS>SUBSTRUCTURE
     1 MOL1         1 MOLECULE          1 A
