# Molecule written by the XED library from Cresset
@<TRIPOS>MOLECULE
CHEMBL91654
    48     50      1
SMALL
USER_CHARGES
@<TRIPOS>ATOM
      1 N            7.3088    0.6405    0.1575 N.am      1 MOL1       -0.4229
      2 C            6.1496    1.3443    0.1494 C.2       1 MOL1        0.1443
      3 N            6.1258    2.6452    0.2582 N.2       1 MOL1       -0.5955
      4 C            4.8429    0.6488    0.0200 C.ar      1 MOL1       -0.0295
      5 C            4.7292   -0.6828   -0.3549 C.ar      1 MOL1       -0.0554
      6 C            3.4997   -1.2781   -0.4683 C.ar      1 MOL1       -0.0996
      7 C            2.3276   -0.5762   -0.2067 C.ar      1 MOL1        0.0903
      8 C            2.4486    0.7544    0.1679 C.ar      1 MOL1       -0.0996
      9 C            3.6771    1.3546    0.2748 C.ar      1 MOL1       -0.0554
     10 N            1.0543   -1.1838   -0.3176 N.am      1 MOL1       -0.2345
     11 C            1.0424   -2.6611   -0.4474 C.3       1 MOL1        0.0763
     12 C           -0.1743   -3.5614   -0.2458 C.3       1 MOL1       -0.0691
     13 C           -0.7715   -3.1601    1.1008 C.3       1 MOL1       -0.0691
     14 C           -1.6502   -1.9359    0.8430 C.3       1 MOL1        0.0763
     15 N           -1.2954   -0.6698    0.1559 N.am      1 MOL1       -0.2430
     16 C           -0.0846   -0.4330   -0.4469 C.2       1 MOL1        0.4454
     17 O            0.0101    0.6017   -1.1142 O.2       1 MOL1       -0.4469
     18 C           -2.2981    0.3268    0.2127 C.ar      1 MOL1        0.0752
     19 C           -1.9644    1.6383    0.5100 C.ar      1 MOL1       -0.0858
     20 C           -2.9362    2.6070    0.5950 C.ar      1 MOL1       -0.0862
     21 C           -4.2554    2.2851    0.3856 C.ar      1 MOL1       -0.0850
     22 C           -4.6274    0.9842    0.0799 C.ar      1 MOL1       -0.0081
     23 C           -3.6336    0.0220   -0.0017 C.ar      1 MOL1       -0.0734
     24 C           -6.0567    0.6119   -0.1491 C.2       1 MOL1        0.1547
     25 N           -6.8836    1.4413   -0.7247 N.2       1 MOL1       -0.5833
     26 N           -6.4888   -0.6065    0.2446 N.am      1 MOL1       -0.4206
     27  H           8.0822    1.0564    0.2138 H         1 MOL1        0.2753
     28  H           7.2991   -0.2374    0.1148 H         1 MOL1        0.2753
     29  H           7.0425    3.0364    0.3405 H         1 MOL1        0.2200
     30  H           5.5492   -1.2186   -0.5500 H         1 MOL1        0.0910
     31  H           3.4535   -2.2353   -0.7477 H         1 MOL1        0.0919
     32  H           1.6256    1.2875    0.3615 H         1 MOL1        0.0919
     33  H           3.7329    2.3165    0.5419 H         1 MOL1        0.0910
     34  H           1.8336   -3.0906    0.3482 H         1 MOL1        0.0595
     35  H           1.4650   -2.9114   -1.5422 H         1 MOL1        0.0595
     36  H           0.1759   -4.7097   -0.2065 H         1 MOL1        0.0474
     37  H          -0.9539   -3.4223   -1.1488 H         1 MOL1        0.0474
     38  H          -1.4531   -4.0561    1.5178 H         1 MOL1        0.0474
     39  H           0.0694   -2.9071    1.9187 H         1 MOL1        0.0474
     40  H          -2.0893   -1.6329    1.9184 H         1 MOL1        0.0595
     41  H          -2.5629   -2.4059    0.2225 H         1 MOL1        0.0595
     42  H          -1.0078    1.8825    0.6687 H         1 MOL1        0.0919
     43  H          -2.6831    3.5493    0.8133 H         1 MOL1        0.0906
     44  H          -4.9495    2.9998    0.4602 H         1 MOL1        0.0910
     45  H          -3.8927   -0.9159   -0.2203 H         1 MOL1        0.0923
     46  H          -6.4508    2.2997   -0.9970 H         1 MOL1        0.2200
     47  H          -5.9460   -1.1677    0.6505 H         1 MOL1        0.2753
     48  H          -7.3253   -0.8397    0.0980 H         1 MOL1        0.2753
@<TRIPOS>BOND
     1      1      2 am
     2      2      3 2 
     3      2      4 1 
     4      4      5 ar
     5      5      6 ar
     6      6      7 ar
     7      7      8 ar
     8      7     10 1 
     9      8      9 ar
    10      9      4 ar
    11     10     11 1 
    12     11     12 1 
    13     12     13 1 
    14     13     14 1 
    15     14     15 1 
    16     15     16 am
    17     15     18 1 
    18     16     10 am
    19     16     17 2 
    20     18     19 ar
    21     19     20 ar
    22     20     21 ar
    23     21     22 ar
    24     22     23 ar
    25     22     24 1 
    26     23     18 ar
    27     24     25 2 
    28     24     26 am
    29      1     27 1 
    30      1     28 1 
    31      3     29 1 
    32      5     30 1 
    33      6     31 1 
    34      8     32 1 
    35      9     33 1 
    36     11     34 1 
    37     11     35 1 
    38     12     36 1 
    39     12     37 1 
    40     13     38 1 
    41     13     39 1 
    42     14     40 1 
    43     14     41 1 
    44     19     42 1 
    45     20     43 1 
    46     21     44 1 
    47     23     45 1 
    48     25     46 1 
    49     26     47 1 
    50     26     48 1 
@<TRIPOS>SUBSTRUCTURE
     1 MOL1         1 MOLECULE          1 A
