# Molecule written by the XED library from Cresset
@<TRIPOS>MOLECULE
CHEMBL431538
    44     45      1
SMALL
USER_CHARGES
@<TRIPOS>ATOM
      1 C           -7.3779   -2.6708   -0.1011 C.3       1 MOL1       -0.0439
      2 O           -6.6209   -1.4720   -0.3539 O.3       1 MOL1       -0.1622
      3 C           -6.6060   -0.4917    0.6108 C.2       1 MOL1        0.3313
      4 N           -7.5768   -0.2767    1.4616 N.2       1 MOL1       -0.5668
      5 N           -5.4920    0.2834    0.6124 N.am      1 MOL1       -0.2485
      6 S           -4.5287    0.4653   -0.6950 S.3       1 MOL1        0.5560
      7 O           -4.8731    1.7106   -1.2990 O.2       1 MOL1       -0.3088
      8 O           -4.6750   -0.7067   -1.4925 O.2       1 MOL1       -0.3088
      9 C           -2.8027    0.5780   -0.2306 C.ar      1 MOL1        0.0849
     10 C           -2.2278    1.8227   -0.0140 C.ar      1 MOL1       -0.0603
     11 C           -0.8823    1.9220    0.2002 C.ar      1 MOL1       -0.0582
     12 C           -0.0833    0.7678    0.1948 C.ar      1 MOL1        0.0461
     13 C           -0.6928   -0.4876    0.0281 C.ar      1 MOL1       -0.0582
     14 C           -2.0376   -0.5769   -0.1828 C.ar      1 MOL1       -0.0603
     15 N            1.2614    0.8778    0.3048 N.ar      1 MOL1       -0.1911
     16 N            1.9981   -0.2191    0.2365 N.ar      1 MOL1       -0.1385
     17 C            3.3351   -0.1624    0.2050 C.ar      1 MOL1        0.0250
     18 C            4.0431   -1.3810    0.1230 C.ar      1 MOL1       -0.0494
     19 C            5.3979   -1.3863    0.0607 C.ar      1 MOL1       -0.1070
     20 C            6.1262   -0.1886    0.0754 C.ar      1 MOL1        0.0708
     21 C            5.4236    1.0240    0.1632 C.ar      1 MOL1       -0.1070
     22 C            4.0662    1.0483    0.2281 C.ar      1 MOL1       -0.0494
     23 N            7.5121   -0.2043    0.0028 N.pl3     1 MOL1       -0.1410
     24 C            8.2599   -1.4739   -0.0678 C.3       1 MOL1       -0.0668
     25 C            8.2880    1.0483   -0.0136 C.3       1 MOL1       -0.0668
     26  H          -8.5475   -2.5183   -0.3220 H         1 MOL1        0.0618
     27  H          -7.2038   -3.0474    1.0253 H         1 MOL1        0.0618
     28  H          -6.9752   -3.5240   -0.8427 H         1 MOL1        0.0618
     29  H          -8.3584   -0.8808    1.3249 H         1 MOL1        0.2209
     30  H          -5.3189    0.7631    1.3287 H         1 MOL1        0.2114
     31  H          -2.7928    2.6476   -0.0375 H         1 MOL1        0.0915
     32  H          -0.4620    2.8191    0.3380 H         1 MOL1        0.0919
     33  H          -0.1345   -1.3176    0.0429 H         1 MOL1        0.0919
     34  H          -2.4653   -1.4697   -0.3260 H         1 MOL1        0.0915
     35  H           3.5414   -2.2461    0.1071 H         1 MOL1        0.0919
     36  H           5.8847   -2.2582    0.0010 H         1 MOL1        0.0917
     37  H           5.9336    1.8830    0.1763 H         1 MOL1        0.0917
     38  H           3.5837    1.9223    0.2877 H         1 MOL1        0.0919
     39  H           9.4512   -1.3275   -0.0644 H         1 MOL1        0.0545
     40  H           7.9585   -2.1524    0.8750 H         1 MOL1        0.0545
     41  H           7.9477   -2.0543   -1.0708 H         1 MOL1        0.0545
     42  H           9.4724    0.8764   -0.0974 H         1 MOL1        0.0545
     43  H           8.0572    1.6549    0.9952 H         1 MOL1        0.0545
     44  H           7.9303    1.7068   -0.9504 H         1 MOL1        0.0545
@<TRIPOS>BOND
     1      1      2 1 
     2      2      3 1 
     3      3      4 2 
     4      3      5 am
     5      5      6 1 
     6      6      7 2 
     7      6      8 2 
     8      6      9 1 
     9      9     10 ar
    10     10     11 ar
    11     11     12 ar
    12     12     13 ar
    13     12     15 1 
    14     13     14 ar
    15     14      9 ar
    16     15     16 2 
    17     16     17 1 
    18     17     18 ar
    19     18     19 ar
    20     19     20 ar
    21     20     21 ar
    22     20     23 1 
    23     21     22 ar
    24     22     17 ar
    25     23     24 1 
    26     23     25 1 
    27      1     26 1 
    28      1     27 1 
    29      1     28 1 
    30      4     29 1 
    31      5     30 1 
    32     10     31 1 
    33     11     32 1 
    34     13     33 1 
    35     14     34 1 
    36     18     35 1 
    37     19     36 1 
    38     21     37 1 
    39     22     38 1 
    40     24     39 1 
    41     24     40 1 
    42     24     41 1 
    43     25     42 1 
    44     25     43 1 
    45     25     44 1 
@<TRIPOS>SUBSTRUCTURE
     1 MOL1         1 MOLECULE          1 A
