# Molecule written by the XED library from Cresset
@<TRIPOS>MOLECULE
CHEMBL62492
    44     46      1
SMALL
USER_CHARGES
@<TRIPOS>ATOM
      1 C            8.2210    0.6382   -0.3017 C.3       1 MOL1       -0.1169
      2 C            6.7888    1.1923   -0.2716 C.3       1 MOL1       -0.0499
      3 C            6.6830    2.1548    0.9236 C.3       1 MOL1       -0.1169
      4 C            5.8021    0.0172   -0.1272 C.3       1 MOL1       -0.0227
      5 O            4.4289    0.4546   -0.2318 O.3       1 MOL1       -0.1986
      6 C            3.4424   -0.4492   -0.0959 C.ar      1 MOL1        0.0697
      7 C            3.6805   -1.8051    0.0261 C.ar      1 MOL1       -0.0680
      8 C            2.6288   -2.6862    0.1616 C.ar      1 MOL1       -0.1008
      9 C            1.3386   -2.2237    0.1720 C.ar      1 MOL1       -0.0759
     10 C            1.0624   -0.8679    0.0485 C.ar      1 MOL1        0.0056
     11 C            2.1342    0.0114   -0.0767 C.ar      1 MOL1        0.0895
     12 O            1.9206    1.3509   -0.1729 O.3       1 MOL1       -0.3756
     13 C           -0.3348   -0.4850    0.0458 C.ar      1 MOL1        0.2175
     14 N           -1.3587   -1.3207    0.2340 N.ar      1 MOL1       -0.4001
     15 C           -2.5304   -0.6106    0.1333 C.ar      1 MOL1        0.0230
     16 C           -3.8743   -0.9585    0.2230 C.ar      1 MOL1       -0.0453
     17 C           -4.8118    0.0354    0.0464 C.ar      1 MOL1        0.0011
     18 C           -6.2557   -0.3165    0.1227 C.2       1 MOL1        0.1510
     19 N           -7.1224    0.5156    0.6337 N.2       1 MOL1       -0.5943
     20 N           -6.6566   -1.5214   -0.3392 N.am      1 MOL1       -0.4225
     21 C           -4.3961    1.3610   -0.2161 C.ar      1 MOL1        0.0639
     22 Cl          -5.5868    2.6041   -0.4674 Cl        1 MOL1       -0.1051
     23 C           -3.0722    1.7006   -0.2976 C.ar      1 MOL1       -0.0639
     24 C           -2.1537    0.6759   -0.1186 C.ar      1 MOL1        0.0871
     25 N           -0.7774    0.7708   -0.1790 N.pl3     1 MOL1       -0.1586
     26 H           -0.3065    1.4892   -0.3574 H         1 MOL1        0.2049
     27  H           8.9963    1.5501   -0.3981 H         1 MOL1        0.0435
     28  H           8.4229    0.0427    0.7208 H         1 MOL1        0.0435
     29  H           8.3532   -0.1048   -1.2355 H         1 MOL1        0.0435
     30  H           6.5734    1.7898   -1.2903 H         1 MOL1        0.0501
     31  H           5.5839    2.6375    0.9576 H         1 MOL1        0.0435
     32  H           6.8846    1.5546    1.9428 H         1 MOL1        0.0435
     33  H           7.5026    3.0249    0.8102 H         1 MOL1        0.0435
     34  H           5.9868   -0.5192    0.9320 H         1 MOL1        0.0645
     35  H           6.0205   -0.7657   -1.0089 H         1 MOL1        0.0645
     36  H           4.6167   -2.1551    0.0195 H         1 MOL1        0.0924
     37  H           2.8079   -3.6657    0.2514 H         1 MOL1        0.0906
     38  H           0.5828   -2.8745    0.2670 H         1 MOL1        0.0910
     39  H           1.3468    1.6827    0.5828 H         1 MOL1        0.3295
     40  H          -4.1491   -1.9015    0.4075 H         1 MOL1        0.0923
     41  H          -6.7006    1.3489    0.9872 H         1 MOL1        0.2200
     42  H          -6.0765   -2.0858   -0.6848 H         1 MOL1        0.2753
     43  H          -7.5065   -1.7444   -0.2965 H         1 MOL1        0.2753
     44  H          -2.7824    2.6391   -0.4845 H         1 MOL1        0.0952
@<TRIPOS>BOND
     1      1      2 1 
     2      2      3 1 
     3      2      4 1 
     4      4      5 1 
     5      5      6 1 
     6      6      7 ar
     7      7      8 ar
     8      8      9 ar
     9      9     10 ar
    10     10     11 ar
    11     10     13 1 
    12     11      6 ar
    13     11     12 1 
    14     13     14 ar
    15     14     15 ar
    16     15     16 ar
    17     16     17 ar
    18     17     18 1 
    19     17     21 ar
    20     18     19 2 
    21     18     20 am
    22     21     22 1 
    23     21     23 ar
    24     23     24 ar
    25     24     15 ar
    26     24     25 ar
    27     25     13 ar
    28      1     27 1 
    29      1     28 1 
    30      1     29 1 
    31      2     30 1 
    32      3     31 1 
    33      3     32 1 
    34      3     33 1 
    35      4     34 1 
    36      4     35 1 
    37      7     36 1 
    38      8     37 1 
    39      9     38 1 
    40     12     39 1 
    41     16     40 1 
    42     19     41 1 
    43     20     42 1 
    44     20     43 1 
    45     23     44 1 
    46     25     26 1 
@<TRIPOS>SUBSTRUCTURE
     1 MOL1         1 MOLECULE          1 A
