# Molecule written by the XED library from Cresset
@<TRIPOS>MOLECULE
CHEMBL62370
    42     45      1
SMALL
USER_CHARGES
@<TRIPOS>ATOM
      1 N           -7.9742    0.8751   -0.0184 N.am      1 MOL1       -0.4220
      2 C           -7.0375   -0.1059   -0.0269 C.2       1 MOL1        0.1479
      3 N           -7.3607   -1.3699   -0.0176 N.2       1 MOL1       -0.5921
      4 C           -5.5864    0.2254   -0.0445 C.ar      1 MOL1       -0.0232
      5 C           -5.1309    1.5581   -0.1619 C.ar      1 MOL1       -0.0740
      6 C           -3.8022    1.8699   -0.1796 C.ar      1 MOL1       -0.0908
      7 C           -2.9188    0.8077   -0.0756 C.ar      1 MOL1        0.0821
      8 N           -1.5449    0.8871   -0.0678 N.pl3     1 MOL1       -0.1582
      9 C           -1.1194   -0.3849    0.0626 C.ar      1 MOL1        0.2195
     10 N           -2.1578   -1.2239    0.1290 N.ar      1 MOL1       -0.4001
     11 C           -3.3207   -0.4910    0.0415 C.ar      1 MOL1        0.0255
     12 C           -4.6785   -0.8083    0.0563 C.ar      1 MOL1       -0.0500
     13 C            0.2813   -0.7419    0.1377 C.ar      1 MOL1        0.0057
     14 C            0.6356   -2.0535    0.4245 C.ar      1 MOL1       -0.0751
     15 C            1.9554   -2.4142    0.5334 C.ar      1 MOL1       -0.1008
     16 C            2.9541   -1.4773    0.3555 C.ar      1 MOL1       -0.0666
     17 C            2.6337   -0.1677    0.0521 C.ar      1 MOL1        0.0728
     18 O            3.5657    0.8441   -0.1411 O.3       1 MOL1       -0.1415
     19 C            4.9028    0.5948   -0.0899 C.ar      1 MOL1        0.0612
     20 C            5.5114   -0.3448   -0.9055 C.ar      1 MOL1       -0.0829
     21 C            6.8735   -0.5266   -0.8558 C.ar      1 MOL1       -0.0868
     22 C            7.6414    0.2315   -0.0005 C.ar      1 MOL1       -0.1074
     23 C            7.0455    1.1730    0.8075 C.ar      1 MOL1       -0.0868
     24 C            5.6841    1.3541    0.7609 C.ar      1 MOL1       -0.0829
     25 C            1.2990    0.1863   -0.0547 C.ar      1 MOL1        0.0912
     26 O            1.0016    1.4797   -0.3541 O.3       1 MOL1       -0.3755
     27 H           -1.0611    1.6175   -0.1224 H         1 MOL1        0.2049
     28  H          -8.8305    0.6727   -0.0214 H         1 MOL1        0.2753
     29  H          -7.7385    1.7211   -0.0068 H         1 MOL1        0.2753
     30  H          -8.3511   -1.5086   -0.0061 H         1 MOL1        0.2200
     31  H          -5.7942    2.3006   -0.2358 H         1 MOL1        0.0910
     32  H          -3.4834    2.8141   -0.2624 H         1 MOL1        0.0919
     33  H          -4.9850   -1.7565    0.1396 H         1 MOL1        0.0923
     34  H          -0.0780   -2.7409    0.5602 H         1 MOL1        0.0910
     35  H           2.1953   -3.3614    0.7464 H         1 MOL1        0.0906
     36  H           3.9112   -1.7508    0.4456 H         1 MOL1        0.0924
     37  H           4.9584   -0.8922   -1.5336 H         1 MOL1        0.0924
     38  H           7.3079   -1.2084   -1.4443 H         1 MOL1        0.0906
     39  H           8.6322    0.1000    0.0322 H         1 MOL1        0.0906
     40  H           7.6028    1.7273    1.4256 H         1 MOL1        0.0906
     41  H           5.2555    2.0451    1.3431 H         1 MOL1        0.0924
     42  H           1.8333    2.0348   -0.4654 H         1 MOL1        0.3295
@<TRIPOS>BOND
     1      1      2 am
     2      2      3 2 
     3      2      4 1 
     4      4      5 ar
     5      5      6 ar
     6      6      7 ar
     7      7      8 ar
     8      8      9 ar
     9      9     10 ar
    10      9     13 1 
    11     10     11 ar
    12     11      7 ar
    13     11     12 ar
    14     12      4 ar
    15     13     14 ar
    16     14     15 ar
    17     15     16 ar
    18     16     17 ar
    19     17     18 1 
    20     17     25 ar
    21     18     19 1 
    22     19     20 ar
    23     20     21 ar
    24     21     22 ar
    25     22     23 ar
    26     23     24 ar
    27     24     19 ar
    28     25     13 ar
    29     25     26 1 
    30      1     28 1 
    31      1     29 1 
    32      3     30 1 
    33      5     31 1 
    34      6     32 1 
    35      8     27 1 
    36     12     33 1 
    37     14     34 1 
    38     15     35 1 
    39     16     36 1 
    40     20     37 1 
    41     21     38 1 
    42     22     39 1 
    43     23     40 1 
    44     24     41 1 
    45     26     42 1 
@<TRIPOS>SUBSTRUCTURE
     1 MOL1         1 MOLECULE          1 A
