# Molecule written by the XED library from Cresset
@<TRIPOS>MOLECULE
CHEMBL298638
    24     24      1
SMALL
USER_CHARGES
@<TRIPOS>ATOM
      1 C            3.5120    2.2987    0.1960 C.3       1 MOL1       -0.0439
      2 O            2.8311    1.1085    0.6419 O.3       1 MOL1       -0.1622
      3 C            3.2507   -0.0690    0.0802 C.2       1 MOL1        0.3313
      4 N            4.4784   -0.4484   -0.0473 N.2       1 MOL1       -0.5668
      5 N            2.1182   -0.8830   -0.3911 N.am      1 MOL1       -0.2485
      6 S            0.7290   -1.0945    0.1352 S.3       1 MOL1        0.5498
      7 O            0.6931   -2.4391    0.3784 O.2       1 MOL1       -0.3088
      8 O            1.1820   -0.3730   -1.0463 O.2       1 MOL1       -0.3088
      9 C           -0.8971   -0.3203    0.1847 C.ar      1 MOL1        0.0711
     10 C           -1.9651   -1.1721    0.1513 C.ar      1 MOL1       -0.0603
     11 C           -3.2441   -0.7329    0.0892 C.ar      1 MOL1       -0.0759
     12 C           -3.4873    0.6297    0.0642 C.ar      1 MOL1        0.0308
     13 I           -5.4696    1.2621   -0.1012 I         1 MOL1       -0.0578
     14 C           -2.4304    1.5095    0.1313 C.ar      1 MOL1       -0.0759
     15 C           -1.1391    1.0860    0.1924 C.ar      1 MOL1       -0.0603
     16  H           4.6470    2.3635    0.5778 H         1 MOL1        0.0618
     17  H           3.4956    2.3187   -1.0036 H         1 MOL1        0.0618
     18  H           2.9291    3.2617    0.6100 H         1 MOL1        0.0618
     19  H           5.1211    0.2022    0.3667 H         1 MOL1        0.2209
     20  H           2.6002   -1.5234   -0.9630 H         1 MOL1        0.2114
     21  H          -1.7798   -2.1691    0.1541 H         1 MOL1        0.0915
     22  H          -4.0099   -1.3708    0.0493 H         1 MOL1        0.0927
     23  H          -2.6155    2.5013    0.1219 H         1 MOL1        0.0927
     24  H          -0.3671    1.7044    0.2239 H         1 MOL1        0.0915
@<TRIPOS>BOND
     1      1      2 1 
     2      2      3 1 
     3      3      4 2 
     4      3      5 am
     5      5      6 1 
     6      6      7 2 
     7      6      8 2 
     8      6      9 1 
     9      9     10 ar
    10     10     11 ar
    11     11     12 ar
    12     12     13 1 
    13     12     14 ar
    14     14     15 ar
    15     15      9 ar
    16      1     16 1 
    17      1     17 1 
    18      1     18 1 
    19      4     19 1 
    20      5     20 1 
    21     10     21 1 
    22     11     22 1 
    23     14     23 1 
    24     15     24 1 
@<TRIPOS>SUBSTRUCTURE
     1 MOL1         1 MOLECULE          1 A
