# Molecule written by the XED library from Cresset
@<TRIPOS>MOLECULE
CHEMBL298526
    24     23      1
SMALL
USER_CHARGES
@<TRIPOS>ATOM
      1 N           -4.3678   -2.3430   -0.6520 N.am      1 MOL1       -0.3967
      2 C           -3.8197   -1.1427   -0.3467 C.2       1 MOL1        0.2324
      3 N           -4.5463   -0.1141    0.0243 N.2       1 MOL1       -0.6316
      4 N           -2.4706   -1.0561   -0.4155 N.am      1 MOL1       -0.2589
      5 S           -1.6824    0.1375    0.3568 S.3       1 MOL1        0.5477
      6 O           -2.7910    0.9698    0.7015 O.2       1 MOL1       -0.3048
      7 O           -1.2243   -0.6319    1.4654 O.2       1 MOL1       -0.3048
      8 C           -0.3305    1.3124   -0.0419 C.3       1 MOL1        0.4522
      9 F           -0.3785    1.5815   -1.4057 F         1 MOL1       -0.1589
     10 F           -0.6076    2.5244    0.5843 F         1 MOL1       -0.1589
     11 C            1.1113    0.9156    0.3725 C.3       1 MOL1        0.3352
     12 F            1.8855    2.0691    0.4197 F         1 MOL1       -0.1676
     13 F            1.0905    0.4313    1.6753 F         1 MOL1       -0.1676
     14 C            1.7865   -0.0877   -0.5967 C.3       1 MOL1        0.3316
     15 F            2.1178    0.5891   -1.7680 F         1 MOL1       -0.1658
     16 F            0.8829   -1.0810   -0.9569 F         1 MOL1       -0.1658
     17 C            3.0820   -0.7500   -0.0709 C.3       1 MOL1        0.4471
     18 F            3.0767   -0.9743    1.3017 F         1 MOL1       -0.1490
     19 F            3.2630   -1.9846   -0.6853 F         1 MOL1       -0.1490
     20 F            4.1906    0.0355   -0.3694 F         1 MOL1       -0.1490
     21  H          -5.2385   -2.4575   -0.6071 H         1 MOL1        0.2756
     22  H          -3.8566   -3.0211   -0.8899 H         1 MOL1        0.2756
     23  H          -5.5248   -0.3234    0.0412 H         1 MOL1        0.2205
     24  H          -2.0090   -1.6710   -0.8421 H         1 MOL1        0.2109
@<TRIPOS>BOND
     1      1      2 am
     2      2      3 2 
     3      2      4 am
     4      4      5 1 
     5      5      6 2 
     6      5      7 2 
     7      5      8 1 
     8      8      9 1 
     9      8     10 1 
    10      8     11 1 
    11     11     12 1 
    12     11     13 1 
    13     11     14 1 
    14     14     15 1 
    15     14     16 1 
    16     14     17 1 
    17     17     18 1 
    18     17     19 1 
    19     17     20 1 
    20      1     21 1 
    21      1     22 1 
    22      3     23 1 
    23      4     24 1 
@<TRIPOS>SUBSTRUCTURE
     1 MOL1         1 MOLECULE          1 A
