# Molecule written by the XED library from Cresset
@<TRIPOS>MOLECULE
CHEMBL93657
    44     46      1
SMALL
USER_CHARGES
@<TRIPOS>ATOM
      1 N            7.6989   -2.2671    0.1999 N.am      1 MOL1       -0.4228
      2 C            7.2599   -0.9841    0.1919 C.2       1 MOL1        0.1446
      3 N            8.0716    0.0264    0.3469 N.2       1 MOL1       -0.5952
      4 C            5.8196   -0.6720    0.0001 C.ar      1 MOL1       -0.0289
      5 C            4.8761   -1.6259   -0.3604 C.ar      1 MOL1       -0.0554
      6 C            3.5632   -1.2788   -0.5502 C.ar      1 MOL1       -0.0992
      7 C            3.1497    0.0313   -0.3774 C.ar      1 MOL1        0.0887
      8 N            1.8119    0.3765   -0.6035 N.am      1 MOL1       -0.2061
      9 C            1.1902    1.5056   -0.2149 C.2       1 MOL1        0.3183
     10 O            1.6768    2.3730    0.4951 O.2       1 MOL1       -0.4098
     11 C           -0.2077    1.6096   -0.7794 C.3       1 MOL1        0.0967
     12 C           -1.1518    0.4682   -0.3299 C.3       1 MOL1        0.0021
     13 C           -2.4175    1.2567   -0.1184 C.2       1 MOL1        0.1288
     14 N           -2.1843    2.5161   -0.1389 N.2       1 MOL1       -0.2577
     15 O           -0.8365    2.8409   -0.3743 O.3       1 MOL1       -0.1591
     16 C           -3.7799    0.7268    0.0722 C.ar      1 MOL1       -0.0063
     17 C           -4.8330    1.5913    0.3233 C.ar      1 MOL1       -0.0400
     18 C           -6.1011    1.0978    0.5042 C.ar      1 MOL1       -0.0873
     19 C           -6.3338   -0.2558    0.4358 C.ar      1 MOL1       -0.0375
     20 C           -5.2997   -1.1453    0.1746 C.ar      1 MOL1       -0.0040
     21 C           -4.0256   -0.6333   -0.0026 C.ar      1 MOL1       -0.0223
     22 C           -5.5418   -2.6174    0.0908 C.2       1 MOL1        0.1558
     23 N           -6.6811   -3.0887   -0.3378 N.2       1 MOL1       -0.5839
     24 N           -4.5580   -3.4665    0.4619 N.am      1 MOL1       -0.4205
     25 C            4.0822    0.9853   -0.0052 C.ar      1 MOL1       -0.0992
     26 C            5.3952    0.6370    0.1758 C.ar      1 MOL1       -0.0554
     27  H           8.5562   -2.4434    0.2921 H         1 MOL1        0.2753
     28  H           7.1336   -2.9346    0.1171 H         1 MOL1        0.2753
     29  H           9.0215   -0.2635    0.4658 H         1 MOL1        0.2200
     30  H           5.1520   -2.5764   -0.4926 H         1 MOL1        0.0910
     31  H           2.8990   -1.9766   -0.8186 H         1 MOL1        0.0919
     32  H           1.3270   -0.2058   -1.0547 H         1 MOL1        0.2055
     33  H          -0.1491    1.6058   -1.9776 H         1 MOL1        0.0737
     34  H          -0.7826   -0.0070    0.7083 H         1 MOL1        0.0526
     35  H          -1.2816   -0.3764   -1.1728 H         1 MOL1        0.0526
     36  H          -4.6685    2.5762    0.3747 H         1 MOL1        0.0910
     37  H          -6.8582    1.7244    0.6886 H         1 MOL1        0.0906
     38  H          -7.2617   -0.5961    0.5808 H         1 MOL1        0.0910
     39  H          -3.2657   -1.2550   -0.1903 H         1 MOL1        0.0914
     40  H          -7.3221   -2.3760   -0.6183 H         1 MOL1        0.2200
     41  H          -3.7928   -3.1629    0.7726 H         1 MOL1        0.2753
     42  H          -4.6855   -4.3348    0.3949 H         1 MOL1        0.2753
     43  H           3.8001    1.9352    0.1234 H         1 MOL1        0.0919
     44  H           6.0584    1.3386    0.4358 H         1 MOL1        0.0910
@<TRIPOS>BOND
     1      1      2 am
     2      2      3 2 
     3      2      4 1 
     4      4      5 ar
     5      5      6 ar
     6      6      7 ar
     7      7      8 1 
     8      7     25 ar
     9      8      9 am
    10      9     10 2 
    11      9     11 1 
    12     11     12 1 
    13     12     13 1 
    14     13     14 2 
    15     13     16 1 
    16     14     15 1 
    17     15     11 1 
    18     16     17 ar
    19     17     18 ar
    20     18     19 ar
    21     19     20 ar
    22     20     21 ar
    23     20     22 1 
    24     21     16 ar
    25     22     23 2 
    26     22     24 am
    27     25     26 ar
    28     26      4 ar
    29      1     27 1 
    30      1     28 1 
    31      3     29 1 
    32      5     30 1 
    33      6     31 1 
    34      8     32 1 
    35     11     33 1 
    36     12     34 1 
    37     12     35 1 
    38     17     36 1 
    39     18     37 1 
    40     19     38 1 
    41     21     39 1 
    42     23     40 1 
    43     24     41 1 
    44     24     42 1 
    45     25     43 1 
    46     26     44 1 
@<TRIPOS>SUBSTRUCTURE
     1 MOL1         1 MOLECULE          1 A
