# Molecule written by the XED library from Cresset
@<TRIPOS>MOLECULE
CHEMBL298996
    42     43      1
SMALL
USER_CHARGES
@<TRIPOS>ATOM
      1 C           -8.0919    1.3431   -0.0526 C.3       1 MOL1       -0.0668
      2 N           -7.3083    0.0953   -0.0046 N.pl3     1 MOL1       -0.1410
      3 C           -8.0445   -1.1804   -0.0274 C.3       1 MOL1       -0.0668
      4 C           -5.9225    0.1239    0.0537 C.ar      1 MOL1        0.0708
      5 C           -5.2350    1.3457    0.0634 C.ar      1 MOL1       -0.1070
      6 C           -3.8817    1.3855    0.1185 C.ar      1 MOL1       -0.0494
      7 C           -3.1358    0.1892    0.1649 C.ar      1 MOL1        0.0250
      8 C           -3.8240   -1.0454    0.1581 C.ar      1 MOL1       -0.0494
      9 C           -5.1800   -1.0658    0.1031 C.ar      1 MOL1       -0.1070
     10 N           -1.8012    0.2799    0.1936 N.ar      1 MOL1       -0.1385
     11 N           -1.0424   -0.8025    0.2151 N.ar      1 MOL1       -0.1911
     12 C            0.2997   -0.6510    0.1153 C.ar      1 MOL1        0.0461
     13 C            1.1406   -1.7739    0.0686 C.ar      1 MOL1       -0.0582
     14 C            2.4848   -1.6138   -0.1181 C.ar      1 MOL1       -0.0603
     15 C            3.0213   -0.3389   -0.2563 C.ar      1 MOL1        0.0849
     16 C            2.2082    0.7798   -0.1689 C.ar      1 MOL1       -0.0603
     17 C            0.8654    0.6311    0.0170 C.ar      1 MOL1       -0.0582
     18 S            4.7649   -0.1056   -0.6109 S.3       1 MOL1        0.4225
     19 O            5.2360   -1.3605   -0.1220 O.2       1 MOL1       -0.3088
     20 O            5.0411    1.0173   -1.4483 O.2       1 MOL1       -0.3088
     21 N            6.2275   -0.2792    0.2316 N.2       1 MOL1       -0.4008
     22 C            7.0850    0.7183    0.3583 C.2       1 MOL1        0.1686
     23 N            8.2962    0.5158    0.9103 N.am      1 MOL1       -0.4044
     24 N            6.8337    1.9883   -0.0263 N.am      1 MOL1       -0.4044
     25  H          -9.2786    1.1649   -0.0505 H         1 MOL1        0.0545
     26  H          -7.7965    1.9467   -1.0473 H         1 MOL1        0.0545
     27  H          -7.8091    2.0130    0.9025 H         1 MOL1        0.0545
     28  H          -9.2363   -1.0400   -0.0446 H         1 MOL1        0.0545
     29  H          -7.7194   -1.7971   -1.0051 H         1 MOL1        0.0545
     30  H          -7.7506   -1.8134    0.9497 H         1 MOL1        0.0545
     31  H          -5.7502    2.2017    0.0274 H         1 MOL1        0.0917
     32  H          -3.4092    2.2669    0.1224 H         1 MOL1        0.0919
     33  H          -3.3120   -1.9039    0.1909 H         1 MOL1        0.0919
     34  H          -5.6587   -1.9440    0.0967 H         1 MOL1        0.0917
     35  H           0.7535   -2.6918    0.1554 H         1 MOL1        0.0919
     36  H           3.0806   -2.4153   -0.1699 H         1 MOL1        0.0915
     37  H           2.6032    1.6942   -0.2558 H         1 MOL1        0.0915
     38  H           0.2778    1.4386    0.0681 H         1 MOL1        0.0919
     39  H           8.5195   -0.2856    1.1952 H         1 MOL1        0.2755
     40  H           8.8684    1.1801    0.9858 H         1 MOL1        0.2755
     41  H           6.0260    2.2349   -0.2544 H         1 MOL1        0.2755
     42  H           7.4807    2.5854   -0.0247 H         1 MOL1        0.2755
@<TRIPOS>BOND
     1      1      2 1 
     2      2      3 1 
     3      2      4 1 
     4      4      5 ar
     5      5      6 ar
     6      6      7 ar
     7      7      8 ar
     8      7     10 1 
     9      8      9 ar
    10      9      4 ar
    11     10     11 2 
    12     11     12 1 
    13     12     13 ar
    14     13     14 ar
    15     14     15 ar
    16     15     16 ar
    17     15     18 1 
    18     16     17 ar
    19     17     12 ar
    20     18     19 2 
    21     18     20 2 
    22     18     21 1 
    23     21     22 2 
    24     22     23 am
    25     22     24 am
    26      1     25 1 
    27      1     26 1 
    28      1     27 1 
    29      3     28 1 
    30      3     29 1 
    31      3     30 1 
    32      5     31 1 
    33      6     32 1 
    34      8     33 1 
    35      9     34 1 
    36     13     35 1 
    37     14     36 1 
    38     16     37 1 
    39     17     38 1 
    40     23     39 1 
    41     23     40 1 
    42     24     41 1 
    43     24     42 1 
@<TRIPOS>SUBSTRUCTURE
     1 MOL1         1 MOLECULE          1 A
