# Molecule written by the XED library from Cresset
@<TRIPOS>MOLECULE
CHEMBL61327
    35     36      1
SMALL
USER_CHARGES
@<TRIPOS>ATOM
      1 C           -4.4767   -3.0282   -0.0031 C.3       1 MOL1       -0.0802
      2 C           -4.0321   -1.5803   -0.0021 C.ar      1 MOL1       -0.0768
      3 C           -4.9640   -0.5613   -0.0023 C.ar      1 MOL1       -0.0497
      4 C           -4.5514    0.7468   -0.0015 C.ar      1 MOL1        0.0483
      5 Br          -5.8382    2.1218   -0.0015 Br        1 MOL1       -0.0843
      6 C           -3.1983    1.0419   -0.0006 C.ar      1 MOL1        0.0988
      7 O           -2.7832    2.3343    0.0002 O.3       1 MOL1       -0.3734
      8 C           -2.2432    0.0285   -0.0003 C.ar      1 MOL1        0.0136
      9 C           -2.6925   -1.2899   -0.0013 C.ar      1 MOL1       -0.0600
     10 C           -0.8057    0.3995    0.0015 C.2       1 MOL1        0.3234
     11 O           -0.5653    1.6043   -0.0065 O.2       1 MOL1       -0.4159
     12 N            0.1599   -0.5544    0.0122 N.am      1 MOL1       -0.2166
     13 C            1.5537   -0.3842    0.0066 C.ar      1 MOL1        0.0896
     14 C            2.3839   -1.4910   -0.0025 C.ar      1 MOL1       -0.0996
     15 C            3.7483   -1.3510   -0.0061 C.ar      1 MOL1       -0.0553
     16 C            4.3581   -0.0978   -0.0002 C.ar      1 MOL1       -0.0292
     17 C            3.5052    1.0026    0.0083 C.ar      1 MOL1       -0.0553
     18 C            2.1416    0.8692    0.0118 C.ar      1 MOL1       -0.0996
     19 C            5.8469    0.0956   -0.0026 C.2       1 MOL1        0.1447
     20 N            6.6800   -0.9126   -0.0011 N.2       1 MOL1       -0.5956
     21 N            6.3595    1.3485   -0.0058 N.am      1 MOL1       -0.4228
     22  H          -5.6748   -3.1062   -0.0036 H         1 MOL1        0.0465
     23  H          -4.0457   -3.5734    0.9751 H         1 MOL1        0.0465
     24  H          -4.0455   -3.5725   -0.9816 H         1 MOL1        0.0465
     25  H          -5.9404   -0.7770   -0.0028 H         1 MOL1        0.0936
     26  H          -3.5610    2.9728   -0.0003 H         1 MOL1        0.3295
     27  H          -2.0364   -2.0423   -0.0016 H         1 MOL1        0.0912
     28  H          -0.1137   -1.3889    0.0249 H         1 MOL1        0.2056
     29  H           1.9830   -2.4071   -0.0063 H         1 MOL1        0.0919
     30  H           4.2999   -2.1807   -0.0129 H         1 MOL1        0.0910
     31  H           3.8863    1.9240    0.0126 H         1 MOL1        0.0910
     32  H           1.5716    1.6886    0.0187 H         1 MOL1        0.0919
     33  H           6.2397   -1.8038    0.0025 H         1 MOL1        0.2200
     34  H           5.8433    2.0573   -0.0083 H         1 MOL1        0.2753
     35  H           7.2331    1.4546   -0.0056 H         1 MOL1        0.2753
@<TRIPOS>BOND
     1      1      2 1 
     2      2      3 ar
     3      3      4 ar
     4      4      5 1 
     5      4      6 ar
     6      6      7 1 
     7      6      8 ar
     8      8      9 ar
     9      8     10 1 
    10      9      2 ar
    11     10     11 2 
    12     10     12 am
    13     12     13 1 
    14     13     14 ar
    15     14     15 ar
    16     15     16 ar
    17     16     17 ar
    18     16     19 1 
    19     17     18 ar
    20     18     13 ar
    21     19     20 2 
    22     19     21 am
    23      1     22 1 
    24      1     23 1 
    25      1     24 1 
    26      3     25 1 
    27      7     26 1 
    28      9     27 1 
    29     12     28 1 
    30     14     29 1 
    31     15     30 1 
    32     17     31 1 
    33     18     32 1 
    34     20     33 1 
    35     21     34 1 
    36     21     35 1 
@<TRIPOS>SUBSTRUCTURE
     1 MOL1         1 MOLECULE          1 A
