# Molecule written by the XED library from Cresset
@<TRIPOS>MOLECULE
CHEMBL9126
    46     48      1
SMALL
USER_CHARGES
@<TRIPOS>ATOM
      1 N            7.9490   -1.1454   -0.0284 N.am      1 MOL1       -0.4232
      2 C            7.2233    0.0000   -0.0160 C.2       1 MOL1        0.1422
      3 N            7.7880    1.1777   -0.0290 N.2       1 MOL1       -0.5987
      4 C            5.7385   -0.0422    0.0169 C.ar      1 MOL1       -0.0348
      5 C            5.0107   -1.2250    0.0286 C.ar      1 MOL1       -0.0556
      6 C            3.6410   -1.2081    0.0665 C.ar      1 MOL1       -0.1119
      7 C            2.9344   -0.0121    0.0957 C.ar      1 MOL1        0.0666
      8 C            3.6655    1.1693    0.0764 C.ar      1 MOL1       -0.1119
      9 C            5.0355    1.1533    0.0384 C.ar      1 MOL1       -0.0556
     10 N            1.5276   -0.0004    0.1477 N.pl3     1 MOL1       -0.1322
     11 C            0.7959    1.2533   -0.1190 C.3       1 MOL1       -0.0266
     12 C           -0.7501    1.2596   -0.1106 C.3       1 MOL1       -0.0266
     13 N           -1.4966    0.0121    0.1470 N.pl3     1 MOL1       -0.1322
     14 C           -0.7645   -1.2409   -0.1194 C.3       1 MOL1       -0.0266
     15 C            0.7810   -1.2488   -0.1041 C.3       1 MOL1       -0.0266
     16 C           -2.9035    0.0206    0.0963 C.ar      1 MOL1        0.0666
     17 C           -3.6171    1.2102    0.0683 C.ar      1 MOL1       -0.1119
     18 C           -4.9873    1.2207    0.0300 C.ar      1 MOL1       -0.0556
     19 C           -5.7330    0.0441    0.0170 C.ar      1 MOL1       -0.0348
     20 C           -5.0046   -1.1425    0.0384 C.ar      1 MOL1       -0.0556
     21 C           -3.6346   -1.1582    0.0764 C.ar      1 MOL1       -0.1119
     22 C           -7.2333    0.0221   -0.0168 C.2       1 MOL1        0.1422
     23 N           -7.9487    1.1176   -0.0306 N.2       1 MOL1       -0.5987
     24 N           -7.8838   -1.1646   -0.0305 N.am      1 MOL1       -0.4232
     25  H           8.8285   -1.1150   -0.0378 H         1 MOL1        0.2753
     26  H           7.5507   -1.9282   -0.0265 H         1 MOL1        0.2753
     27  H           8.7863    1.1199   -0.0493 H         1 MOL1        0.2200
     28  H           5.4848   -2.1038    0.0103 H         1 MOL1        0.0910
     29  H           3.1452   -2.0753    0.0730 H         1 MOL1        0.0917
     30  H           3.1897    2.0475    0.0901 H         1 MOL1        0.0917
     31  H           5.5371    2.0184    0.0272 H         1 MOL1        0.0910
     32  H           1.1458    2.0424    0.7161 H         1 MOL1        0.0581
     33  H           1.1759    1.6663   -1.1809 H         1 MOL1        0.0581
     34  H          -1.0873    2.0365    0.7410 H         1 MOL1        0.0581
     35  H          -1.1309    1.6969   -1.1625 H         1 MOL1        0.0581
     36  H          -1.1402   -1.6493   -1.1841 H         1 MOL1        0.0581
     37  H          -1.1186   -2.0320    0.7120 H         1 MOL1        0.0581
     38  H           1.1671   -1.6942   -1.1507 H         1 MOL1        0.0581
     39  H           1.1117   -2.0197    0.7556 H         1 MOL1        0.0581
     40  H          -3.1261    2.0801    0.0753 H         1 MOL1        0.0917
     41  H          -5.4433    2.1063    0.0121 H         1 MOL1        0.0910
     42  H          -5.4841   -2.0170    0.0270 H         1 MOL1        0.0910
     43  H          -3.1592   -2.0366    0.0894 H         1 MOL1        0.0917
     44  H          -7.4121    1.9543   -0.0180 H         1 MOL1        0.2200
     45  H          -7.4505   -1.9268   -0.0303 H         1 MOL1        0.2753
     46  H          -8.7638   -1.1712   -0.0398 H         1 MOL1        0.2753
@<TRIPOS>BOND
     1      1      2 am
     2      2      3 2 
     3      2      4 1 
     4      4      5 ar
     5      5      6 ar
     6      6      7 ar
     7      7      8 ar
     8      7     10 1 
     9      8      9 ar
    10      9      4 ar
    11     10     11 1 
    12     11     12 1 
    13     12     13 1 
    14     13     14 1 
    15     13     16 1 
    16     14     15 1 
    17     15     10 1 
    18     16     17 ar
    19     17     18 ar
    20     18     19 ar
    21     19     20 ar
    22     19     22 1 
    23     20     21 ar
    24     21     16 ar
    25     22     23 2 
    26     22     24 am
    27      1     25 1 
    28      1     26 1 
    29      3     27 1 
    30      5     28 1 
    31      6     29 1 
    32      8     30 1 
    33      9     31 1 
    34     11     32 1 
    35     11     33 1 
    36     12     34 1 
    37     12     35 1 
    38     14     36 1 
    39     14     37 1 
    40     15     38 1 
    41     15     39 1 
    42     17     40 1 
    43     18     41 1 
    44     20     42 1 
    45     21     43 1 
    46     23     44 1 
    47     24     45 1 
    48     24     46 1 
@<TRIPOS>SUBSTRUCTURE
     1 MOL1         1 MOLECULE          1 A
