# Molecule written by the XED library from Cresset
@<TRIPOS>MOLECULE
CHEMBL171390
    52     55      1
SMALL
USER_CHARGES
@<TRIPOS>ATOM
      1 N           -8.8273   -0.5025    0.2562 N.am      1 MOL1       -0.4267
      2 C           -7.6525    0.1730    0.2564 C.2       1 MOL1        0.1301
      3 N           -7.5955    1.4786    0.2532 N.2       1 MOL1       -0.6198
      4 C           -6.3737   -0.5697    0.2340 C.ar      1 MOL1       -0.0552
      5 C           -6.1881   -1.9097    0.2668 C.ar      1 MOL1        0.0743
      6 N           -4.8992   -2.2756    0.1840 N.pl3     1 MOL1       -0.1562
      7 C           -4.2121   -1.0764    0.0746 C.ar      1 MOL1        0.0551
      8 C           -2.8441   -0.9482   -0.1161 C.ar      1 MOL1       -0.0668
      9 C           -2.3534    0.3286   -0.2479 C.ar      1 MOL1        0.0646
     10 C           -3.1996    1.4404   -0.1403 C.ar      1 MOL1       -0.0850
     11 C           -4.5459    1.2950    0.0458 C.ar      1 MOL1       -0.0908
     12 C           -5.0598    0.0040    0.1277 C.ar      1 MOL1       -0.0306
     13 S           -0.6215    0.5836   -0.6734 S.3       1 MOL1        0.4930
     14 O           -0.3247   -0.6591   -1.3091 O.2       1 MOL1       -0.3088
     15 O           -0.6171    2.0075   -0.7654 O.2       1 MOL1       -0.3088
     16 N            0.9137    0.6406    0.0388 N.3       1 MOL1       -0.4646
     17 C            1.7921   -0.5469   -0.1162 C.3       1 MOL1        0.0773
     18 C            3.1362   -0.5340    0.6462 C.3       1 MOL1       -0.0681
     19 C            3.9469    0.7240    0.2779 C.3       1 MOL1       -0.0502
     20 C            5.2836    0.8043    1.0543 C.3       1 MOL1       -0.0464
     21 C            6.4364   -0.0633    0.5654 C.ar      1 MOL1       -0.0632
     22 C            6.4626   -1.4116    0.8465 C.ar      1 MOL1       -0.0864
     23 C            7.5178   -2.1882    0.4245 C.ar      1 MOL1       -0.0901
     24 C            8.5566   -1.6198   -0.2772 C.ar      1 MOL1       -0.0906
     25 C            8.5381   -0.2730   -0.5582 C.ar      1 MOL1       -0.0901
     26 C            7.4789    0.5005   -0.1396 C.ar      1 MOL1       -0.0864
     27 C            3.0551    1.9220    0.6418 C.3       1 MOL1       -0.0681
     28 C            1.7403    1.8563   -0.1647 C.3       1 MOL1        0.0773
     29 H           -4.5669   -3.0906    0.1873 H         1 MOL1        0.2041
     30  H          -9.5924   -0.0676    0.2572 H         1 MOL1        0.2753
     31  H          -8.8342   -1.3821    0.2502 H         1 MOL1        0.2753
     32  H          -8.5042    1.8972    0.2595 H         1 MOL1        0.2200
     33  H          -6.9377   -2.5675    0.3351 H         1 MOL1        0.0999
     34  H          -2.2490   -1.7487   -0.1877 H         1 MOL1        0.0929
     35  H          -2.8138    2.3590   -0.2253 H         1 MOL1        0.0915
     36  H          -5.1466    2.0924    0.1027 H         1 MOL1        0.0910
     37  H           2.0554   -0.6547   -1.2828 H         1 MOL1        0.0598
     38  H           1.1938   -1.5251    0.2367 H         1 MOL1        0.0598
     39  H           2.9177   -0.5498    1.8256 H         1 MOL1        0.0476
     40  H           3.7611   -1.5103    0.3367 H         1 MOL1        0.0476
     41  H           4.1638    0.7445   -0.9031 H         1 MOL1        0.0490
     42  H           5.6644    1.9426    1.0233 H         1 MOL1        0.0495
     43  H           5.0747    0.5365    2.2050 H         1 MOL1        0.0495
     44  H           5.7156   -1.8286    1.3627 H         1 MOL1        0.0908
     45  H           7.5327   -3.1667    0.6302 H         1 MOL1        0.0906
     46  H           9.3250   -2.1840   -0.5806 H         1 MOL1        0.0906
     47  H           9.2943    0.1425   -1.0653 H         1 MOL1        0.0906
     48  H           7.4707    1.4795   -0.3449 H         1 MOL1        0.0908
     49  H           2.8156    1.8937    1.8179 H         1 MOL1        0.0476
     50  H           3.6106    2.9511    0.3761 H         1 MOL1        0.0476
     51  H           2.0007    1.9528   -1.3326 H         1 MOL1        0.0598
     52  H           1.1180    2.8241    0.1762 H         1 MOL1        0.0598
@<TRIPOS>BOND
     1      1      2 am
     2      2      3 2 
     3      2      4 1 
     4      4      5 ar
     5      5      6 ar
     6      6      7 ar
     7      7      8 ar
     8      8      9 ar
     9      9     10 ar
    10      9     13 1 
    11     10     11 ar
    12     11     12 ar
    13     12      4 ar
    14     12      7 ar
    15     13     14 2 
    16     13     15 2 
    17     13     16 1 
    18     16     17 1 
    19     17     18 1 
    20     18     19 1 
    21     19     20 1 
    22     19     27 1 
    23     20     21 1 
    24     21     22 ar
    25     22     23 ar
    26     23     24 ar
    27     24     25 ar
    28     25     26 ar
    29     26     21 ar
    30     27     28 1 
    31     28     16 1 
    32      1     30 1 
    33      1     31 1 
    34      3     32 1 
    35      5     33 1 
    36      6     29 1 
    37      8     34 1 
    38     10     35 1 
    39     11     36 1 
    40     17     37 1 
    41     17     38 1 
    42     18     39 1 
    43     18     40 1 
    44     19     41 1 
    45     20     42 1 
    46     20     43 1 
    47     22     44 1 
    48     23     45 1 
    49     24     46 1 
    50     25     47 1 
    51     26     48 1 
    52     27     49 1 
    53     27     50 1 
    54     28     51 1 
    55     28     52 1 
@<TRIPOS>SUBSTRUCTURE
     1 MOL1         1 MOLECULE          1 A
