# Molecule written by the XED library from Cresset
@<TRIPOS>MOLECULE
CHEMBL54250
    24     24      1
SMALL
USER_CHARGES
@<TRIPOS>ATOM
      1 N            5.2299    1.0362   -0.1290 N.am      1 MOL1       -0.4076
      2 C            4.1866    0.2302   -0.4293 C.2       1 MOL1        0.1624
      3 N            4.2786   -1.0767   -0.4094 N.2       1 MOL1       -0.6615
      4 N            3.0273    0.8407   -0.7490 N.am      1 MOL1       -0.1208
      5 N            1.8363    0.1155   -0.9402 N.3       1 MOL1       -0.3049
      6 S            1.2419   -0.4435    0.4510 S.3       1 MOL1        0.5537
      7 O            1.5315   -1.8361    0.5572 O.2       1 MOL1       -0.3076
      8 O            1.6822    0.4164    1.5005 O.2       1 MOL1       -0.3076
      9 C           -0.5123   -0.1571    0.1523 C.ar      1 MOL1        0.0985
     10 C           -1.3992   -1.2162    0.0399 C.ar      1 MOL1        0.1512
     11 F           -0.9752   -2.4866    0.1091 F         1 MOL1       -0.1439
     12 C           -2.7450   -0.9641   -0.1363 C.ar      1 MOL1        0.1449
     13 F           -3.6120   -1.9861   -0.2307 F         1 MOL1       -0.1430
     14 C           -3.2069    0.3358   -0.2097 C.ar      1 MOL1        0.1536
     15 F           -4.5186    0.5755   -0.3696 F         1 MOL1       -0.1421
     16 C           -2.3202    1.3902   -0.1165 C.ar      1 MOL1        0.1449
     17 F           -2.7674    2.6544   -0.1971 F         1 MOL1       -0.1430
     18 C           -0.9754    1.1449    0.0645 C.ar      1 MOL1        0.1512
     19 F           -0.1200    2.1746    0.1564 F         1 MOL1       -0.1439
     20  H           6.0122    0.6960    0.0861 H         1 MOL1        0.2755
     21  H           5.1300    1.9105   -0.1426 H         1 MOL1        0.2755
     22  H           5.1951   -1.3876   -0.1566 H         1 MOL1        0.2204
     23  H           3.0070    1.7164   -0.8320 H         1 MOL1        0.2803
     24  H           1.9731   -0.6540   -1.6068 H         1 MOL1        0.2137
@<TRIPOS>BOND
     1      1      2 am
     2      2      3 2 
     3      2      4 am
     4      4      5 1 
     5      5      6 1 
     6      6      7 2 
     7      6      8 2 
     8      6      9 1 
     9      9     10 ar
    10     10     11 1 
    11     10     12 ar
    12     12     13 1 
    13     12     14 ar
    14     14     15 1 
    15     14     16 ar
    16     16     17 1 
    17     16     18 ar
    18     18      9 ar
    19     18     19 1 
    20      1     20 1 
    21      1     21 1 
    22      3     22 1 
    23      4     23 1 
    24      5     24 1 
@<TRIPOS>SUBSTRUCTURE
     1 MOL1         1 MOLECULE          1 A
