# Molecule written by the XED library from Cresset
@<TRIPOS>MOLECULE
CHEMBL61791
    44     47      1
SMALL
USER_CHARGES
@<TRIPOS>ATOM
      1 N            5.8491   -2.9504   -0.0221 N.am      1 MOL1       -0.4236
      2 C            6.0540   -1.6089   -0.0323 C.2       1 MOL1        0.1483
      3 N            7.2588   -1.1048   -0.0459 N.2       1 MOL1       -0.5957
      4 C            4.9023   -0.6637   -0.0217 C.ar      1 MOL1        0.0010
      5 C            3.5979   -1.1280   -0.0792 C.ar      1 MOL1       -0.0587
      6 C            2.5820   -0.1920   -0.0524 C.ar      1 MOL1        0.0634
      7 N            1.2140   -0.4423   -0.0864 N.pl3     1 MOL1       -0.1632
      8 C            0.6451    0.7683   -0.0154 C.ar      1 MOL1        0.2270
      9 N            1.5702    1.7321    0.0481 N.ar      1 MOL1       -0.3995
     10 C            2.8118    1.1503    0.0268 C.ar      1 MOL1        0.0368
     11 C            4.1146    1.6450    0.0772 C.ar      1 MOL1       -0.0664
     12 C            5.1322    0.7342    0.0519 C.ar      1 MOL1        0.1227
     13 F            6.3824    1.2130    0.1035 F         1 MOL1       -0.1436
     14 C           -0.7838    0.9909    0.0137 C.ar      1 MOL1        0.0056
     15 C           -1.2072    2.3033    0.1810 C.ar      1 MOL1       -0.0741
     16 C           -2.5407    2.6069    0.2481 C.ar      1 MOL1       -0.1007
     17 C           -3.4817    1.6048    0.1488 C.ar      1 MOL1       -0.0664
     18 C           -3.0972    0.2904   -0.0272 C.ar      1 MOL1        0.0705
     19 O           -3.9918   -0.7094   -0.1352 O.3       1 MOL1       -0.1938
     20 C           -5.3127   -0.5584    0.4411 C.3       1 MOL1        0.0069
     21 C           -5.8987   -1.9418    0.7978 C.3       1 MOL1       -0.0490
     22 C           -7.2784   -2.0013    0.1212 C.3       1 MOL1       -0.0476
     23 N           -7.5913   -0.5918   -0.1084 N.3       1 MOL1       -0.4273
     24 C           -6.3496    0.0633   -0.5188 C.3       1 MOL1       -0.0256
     25 C           -1.7423   -0.0126   -0.1000 C.ar      1 MOL1        0.0913
     26 O           -1.3539   -1.3069   -0.2774 O.3       1 MOL1       -0.3753
     27 H            0.8191   -1.2264   -0.1330 H         1 MOL1        0.2049
     28  H           6.5329   -3.5039   -0.0348 H         1 MOL1        0.2753
     29  H           5.0365   -3.2819    0.0004 H         1 MOL1        0.2753
     30  H           7.9675   -1.8104   -0.0498 H         1 MOL1        0.2200
     31  H           3.3890   -2.1026   -0.1352 H         1 MOL1        0.0923
     32  H           4.2962    2.6267    0.1327 H         1 MOL1        0.0944
     33  H          -0.5311    3.0363    0.2595 H         1 MOL1        0.0910
     34  H          -2.8320    3.5553    0.3720 H         1 MOL1        0.0906
     35  H          -4.4519    1.8344    0.2051 H         1 MOL1        0.0924
     36  H          -5.2766    0.0929    1.4501 H         1 MOL1        0.0676
     37  H          -5.2067   -2.8435    0.4079 H         1 MOL1        0.0493
     38  H          -6.0363   -2.0385    1.9865 H         1 MOL1        0.0493
     39  H          -8.0986   -2.5426    0.8098 H         1 MOL1        0.0566
     40  H          -7.1893   -2.5516   -0.9421 H         1 MOL1        0.0566
     41  H          -8.3922   -0.4256   -0.7293 H         1 MOL1        0.2748
     42  H          -6.1082   -0.2349   -1.6560 H         1 MOL1        0.0586
     43  H          -6.4458    1.2538   -0.4061 H         1 MOL1        0.0586
     44  H          -2.1395   -1.9319   -0.3305 H         1 MOL1        0.3295
@<TRIPOS>BOND
     1      1      2 am
     2      2      3 2 
     3      2      4 1 
     4      4      5 ar
     5      5      6 ar
     6      6      7 ar
     7      7      8 ar
     8      8      9 ar
     9      8     14 1 
    10      9     10 ar
    11     10      6 ar
    12     10     11 ar
    13     11     12 ar
    14     12      4 ar
    15     12     13 1 
    16     14     15 ar
    17     15     16 ar
    18     16     17 ar
    19     17     18 ar
    20     18     19 1 
    21     18     25 ar
    22     19     20 1 
    23     20     21 1 
    24     21     22 1 
    25     22     23 1 
    26     23     24 1 
    27     24     20 1 
    28     25     14 ar
    29     25     26 1 
    30      1     28 1 
    31      1     29 1 
    32      3     30 1 
    33      5     31 1 
    34      7     27 1 
    35     11     32 1 
    36     15     33 1 
    37     16     34 1 
    38     17     35 1 
    39     20     36 1 
    40     21     37 1 
    41     21     38 1 
    42     22     39 1 
    43     22     40 1 
    44     23     41 1 
    45     24     42 1 
    46     24     43 1 
    47     26     44 1 
@<TRIPOS>SUBSTRUCTURE
     1 MOL1         1 MOLECULE          1 A
