# Molecule written by the XED library from Cresset
@<TRIPOS>MOLECULE
CHEMBL108447
    52     55      1
SMALL
USER_CHARGES
@<TRIPOS>ATOM
      1 C           -5.5036   -3.8532    0.1793 C.3       1 MOL1       -0.1236
      2 C           -4.8752   -2.5105    0.5949 C.3       1 MOL1       -0.0852
      3 C           -5.3589   -1.3358   -0.2912 C.3       1 MOL1       -0.0150
      4 C           -6.8937   -1.1687   -0.1259 C.3       1 MOL1       -0.0416
      5 N           -7.3711    0.1456   -0.5815 N.3       1 MOL1       -0.4219
      6 C           -6.7479    1.2022    0.2330 C.3       1 MOL1       -0.0134
      7 C           -5.2293    1.1513    0.1633 C.ar      1 MOL1       -0.0750
      8 C           -4.5175    2.3150    0.3493 C.ar      1 MOL1       -0.0815
      9 C           -3.1460    2.3028    0.2896 C.ar      1 MOL1       -0.1028
     10 C           -2.4658    1.1256    0.0382 C.ar      1 MOL1        0.0704
     11 N           -1.0621    1.1373   -0.0192 N.am      1 MOL1       -0.2240
     12 C           -0.2094    0.0839   -0.0234 C.2       1 MOL1        0.3240
     13 O           -0.5806   -1.0867    0.0162 O.2       1 MOL1       -0.4094
     14 C            1.2643    0.3076   -0.0598 C.ar      1 MOL1        0.0086
     15 C            1.8462    1.5923   -0.1903 C.ar      1 MOL1       -0.0652
     16 C            3.1876    1.7645   -0.2163 C.ar      1 MOL1       -0.0757
     17 C            4.0487    0.6563   -0.1102 C.ar      1 MOL1       -0.0126
     18 C            5.4428    0.8035   -0.1312 C.ar      1 MOL1       -0.0411
     19 C            6.2812   -0.2731   -0.0095 C.ar      1 MOL1       -0.0044
     20 C            5.6926   -1.5527    0.1370 C.ar      1 MOL1       -0.0652
     21 C            4.3511   -1.7249    0.1462 C.ar      1 MOL1       -0.0773
     22 C            3.4926   -0.6190    0.0227 C.ar      1 MOL1       -0.0112
     23 C            2.0998   -0.7719    0.0402 C.ar      1 MOL1       -0.0453
     24 C            7.7682   -0.0746   -0.0260 C.2       1 MOL1        0.1553
     25 N            8.5912   -1.0539   -0.2916 N.2       1 MOL1       -0.5812
     26 N            8.2736    1.1524    0.2369 N.am      1 MOL1       -0.4212
     27 C           -3.1948   -0.0370   -0.1528 C.ar      1 MOL1       -0.0978
     28 C           -4.5708   -0.0391   -0.0796 C.ar      1 MOL1       -0.0482
     29  H          -6.6692   -3.8667    0.4632 H         1 MOL1        0.0433
     30  H          -4.9501   -4.7428    0.7641 H         1 MOL1        0.0433
     31  H          -5.3706   -4.0167   -1.0022 H         1 MOL1        0.0433
     32  H          -5.1228   -2.2893    1.7487 H         1 MOL1        0.0463
     33  H          -3.6881   -2.6408    0.4861 H         1 MOL1        0.0463
     34  H          -5.1550   -1.6418   -1.4333 H         1 MOL1        0.0529
     35  H          -7.2069   -1.3099    1.0251 H         1 MOL1        0.0571
     36  H          -7.4541   -2.0079   -0.7754 H         1 MOL1        0.0571
     37  H          -8.3952    0.2118   -0.6088 H         1 MOL1        0.2749
     38  H          -7.0898    1.0812    1.3767 H         1 MOL1        0.0596
     39  H          -7.1350    2.2621   -0.1745 H         1 MOL1        0.0596
     40  H          -5.0005    3.1720    0.5293 H         1 MOL1        0.0908
     41  H          -2.6354    3.1516    0.4268 H         1 MOL1        0.0919
     42  H          -0.6971    1.9354   -0.0386 H         1 MOL1        0.2056
     43  H           1.2594    2.3970   -0.2667 H         1 MOL1        0.0910
     44  H           3.5694    2.6843   -0.3095 H         1 MOL1        0.0910
     45  H           5.8261    1.7192   -0.2376 H         1 MOL1        0.0914
     46  H           6.2720   -2.3583    0.2414 H         1 MOL1        0.0910
     47  H           3.9671   -2.6425    0.2472 H         1 MOL1        0.0910
     48  H           1.7078   -1.6874    0.1321 H         1 MOL1        0.0914
     49  H           8.1349   -1.9144   -0.5008 H         1 MOL1        0.2200
     50  H           7.7503    1.8252    0.4504 H         1 MOL1        0.2753
     51  H           9.1435    1.2784    0.1981 H         1 MOL1        0.2753
     52  H          -2.7152   -0.8906   -0.3462 H         1 MOL1        0.0921
@<TRIPOS>BOND
     1      1      2 1 
     2      2      3 1 
     3      3      4 1 
     4      4      5 1 
     5      5      6 1 
     6      6      7 1 
     7      7      8 ar
     8      8      9 ar
     9      9     10 ar
    10     10     11 1 
    11     10     27 ar
    12     11     12 am
    13     12     13 2 
    14     12     14 1 
    15     14     15 ar
    16     15     16 ar
    17     16     17 ar
    18     17     18 ar
    19     18     19 ar
    20     19     20 ar
    21     19     24 1 
    22     20     21 ar
    23     21     22 ar
    24     22     17 ar
    25     22     23 ar
    26     23     14 ar
    27     24     25 2 
    28     24     26 am
    29     27     28 ar
    30     28      3 1 
    31     28      7 ar
    32      1     29 1 
    33      1     30 1 
    34      1     31 1 
    35      2     32 1 
    36      2     33 1 
    37      3     34 1 
    38      4     35 1 
    39      4     36 1 
    40      5     37 1 
    41      6     38 1 
    42      6     39 1 
    43      8     40 1 
    44      9     41 1 
    45     11     42 1 
    46     15     43 1 
    47     16     44 1 
    48     18     45 1 
    49     20     46 1 
    50     21     47 1 
    51     23     48 1 
    52     25     49 1 
    53     26     50 1 
    54     26     51 1 
    55     27     52 1 
@<TRIPOS>SUBSTRUCTURE
     1 MOL1         1 MOLECULE          1 A
