# Molecule written by the XED library from Cresset
@<TRIPOS>MOLECULE
CHEMBL320080
    55     57      1
SMALL
USER_CHARGES
@<TRIPOS>ATOM
      1 N            4.1891   -1.6962   -0.8324 N.3       1 MOL1       -0.5857
      2 C            3.8198   -0.6982    0.1795 C.3       1 MOL1        0.0365
      3 C            4.6898    0.5584   -0.0828 C.3       1 MOL1       -0.0383
      4 C            6.1934    0.2309    0.0786 C.3       1 MOL1       -0.0848
      5 C            7.0550    1.4473   -0.3156 C.3       1 MOL1       -0.0916
      6 C            6.6922    2.6670    0.5551 C.3       1 MOL1       -0.0921
      7 C            5.1854    2.9718    0.4437 C.3       1 MOL1       -0.0916
      8 C            4.3641    1.7357    0.8646 C.3       1 MOL1       -0.0848
      9 C            2.3160   -0.4448    0.1320 C.2       1 MOL1        0.2929
     10 O            1.8563    0.6531   -0.1524 O.2       1 MOL1       -0.4176
     11 N            1.5483   -1.5158    0.4401 N.am      1 MOL1       -0.3905
     12 C            2.0471   -2.8937    0.6073 C.3       1 MOL1        0.0725
     13 C            0.7555   -3.7206    0.7328 C.3       1 MOL1       -0.0686
     14 C           -0.3379   -2.8028    0.1821 C.3       1 MOL1       -0.0562
     15 C            0.0917   -1.4053    0.6497 C.3       1 MOL1        0.1603
     16 C           -0.6425   -0.3257   -0.1146 C.2       1 MOL1        0.3242
     17 O           -0.1030    0.3492   -0.9794 O.2       1 MOL1       -0.4176
     18 N           -1.9198   -0.1976    0.2837 N.am      1 MOL1       -0.3831
     19 C           -2.7668    0.8445   -0.3176 C.3       1 MOL1        0.1165
     20 C           -4.2669    0.6156   -0.1704 C.ar      1 MOL1       -0.0338
     21 C           -5.0777    1.7259   -0.1030 C.ar      1 MOL1       -0.0551
     22 C           -6.4435    1.5908    0.0187 C.ar      1 MOL1        0.0275
     23 Cl          -7.4492    3.0050    0.1046 Cl        1 MOL1       -0.1089
     24 C           -7.0095    0.3361    0.0710 C.ar      1 MOL1       -0.0610
     25 C           -6.2098   -0.7795    0.0031 C.ar      1 MOL1       -0.0780
     26 C           -4.8400   -0.6453   -0.1182 C.ar      1 MOL1        0.0531
     27 O           -4.0574   -1.7598   -0.1848 O.3       1 MOL1       -0.3844
     28 H            4.1045   -1.1190    1.2660 H         1 MOL1        0.0653
     29 H           -0.1065   -1.2905    1.8281 H         1 MOL1        0.0678
     30  H           4.0359   -1.3623   -1.7910 H         1 MOL1        0.2741
     31  H           5.1344   -2.0721   -0.6976 H         1 MOL1        0.2741
     32  H           4.4961    0.9138   -1.2117 H         1 MOL1        0.0503
     33  H           6.4115   -0.0540    1.2233 H         1 MOL1        0.0463
     34  H           6.4997   -0.6905   -0.6249 H         1 MOL1        0.0463
     35  H           6.8620    1.7070   -1.4714 H         1 MOL1        0.0460
     36  H           8.2144    1.1806   -0.1577 H         1 MOL1        0.0460
     37  H           6.9648    2.4355    1.7007 H         1 MOL1        0.0460
     38  H           7.3218    3.6187    0.1850 H         1 MOL1        0.0460
     39  H           4.9140    3.8974    1.1573 H         1 MOL1        0.0460
     40  H           4.9206    3.2535   -0.6932 H         1 MOL1        0.0460
     41  H           4.6462    1.4313    1.9904 H         1 MOL1        0.0463
     42  H           3.2035    2.0300    0.8130 H         1 MOL1        0.0463
     43  H           2.7354   -3.0219    1.5814 H         1 MOL1        0.0593
     44  H           2.6373   -3.2373   -0.3785 H         1 MOL1        0.0593
     45  H           0.5171   -3.9373    1.8882 H         1 MOL1        0.0474
     46  H           0.8117   -4.7488    0.1152 H         1 MOL1        0.0474
     47  H          -0.3110   -2.8345   -1.0164 H         1 MOL1        0.0479
     48  H          -1.4269   -3.1010    0.5878 H         1 MOL1        0.0479
     49  H          -2.2454   -0.7223    0.9131 H         1 MOL1        0.2040
     50  H          -2.5055    0.9201   -1.4864 H         1 MOL1        0.0620
     51  H          -2.4714    1.8865    0.2002 H         1 MOL1        0.0620
     52  H          -4.6710    2.6386   -0.1438 H         1 MOL1        0.0941
     53  H          -8.0008    0.2363    0.1576 H         1 MOL1        0.0939
     54  H          -6.6199   -1.6913    0.0403 H         1 MOL1        0.0924
     55  H          -4.6068   -2.6015   -0.1384 H         1 MOL1        0.3295
@<TRIPOS>BOND
     1      1      2 1 
     2      2      3 1 
     3      2      9 1 
     4      3      4 1 
     5      4      5 1 
     6      5      6 1 
     7      6      7 1 
     8      7      8 1 
     9      8      3 1 
    10      9     10 2 
    11      9     11 am
    12     11     12 1 
    13     12     13 1 
    14     13     14 1 
    15     14     15 1 
    16     15     11 1 
    17     15     16 1 
    18     16     17 2 
    19     16     18 am
    20     18     19 1 
    21     19     20 1 
    22     20     21 ar
    23     21     22 ar
    24     22     23 1 
    25     22     24 ar
    26     24     25 ar
    27     25     26 ar
    28     26     20 ar
    29     26     27 1 
    30      1     30 1 
    31      1     31 1 
    32      2     28 1 
    33      3     32 1 
    34      4     33 1 
    35      4     34 1 
    36      5     35 1 
    37      5     36 1 
    38      6     37 1 
    39      6     38 1 
    40      7     39 1 
    41      7     40 1 
    42      8     41 1 
    43      8     42 1 
    44     12     43 1 
    45     12     44 1 
    46     13     45 1 
    47     13     46 1 
    48     14     47 1 
    49     14     48 1 
    50     15     29 1 
    51     18     49 1 
    52     19     50 1 
    53     19     51 1 
    54     21     52 1 
    55     24     53 1 
    56     25     54 1 
    57     27     55 1 
@<TRIPOS>SUBSTRUCTURE
     1 MOL1         1 MOLECULE          1 A
