@<TRIPOS>MOLECULE
6b
 55 57 0 0 0
SMALL
GASTEIGER
****
Structure written by MMmdl.
@<TRIPOS>ATOM
      1 N          18.2326  -13.2133   21.6902 N.am    1  LIG1       -0.2853
      2 C          18.0295  -11.9153   21.0170 C.3     1  LIG1        0.1024
      3 C          17.3649  -13.7582   22.5771 C.2     1  LIG1        0.2646
      4 O          16.3644  -13.1506   22.9608 O.2     1  LIG1       -0.2694
      5 C          16.6275  -11.7387   20.3833 C.2     1  LIG1        0.2338
      6 O          16.1735  -12.6139   19.6444 O.2     1  LIG1       -0.2738
      7 C          19.1347  -11.8556   19.9527 C.3     1  LIG1       -0.0243
      8 C          17.6230  -15.1593   23.1645 C.3     1  LIG1        0.0574
      9 N          15.9572  -10.6181   20.6810 N.am    1  LIG1       -0.3097
     10 C          20.2327  -12.7823   20.4359 C.3     1  LIG1       -0.0350
     11 N          16.3841  -15.9514   23.0833 N.4     1  LIG1        0.2276
     12 C          18.1081  -15.0943   24.6316 C.3     1  LIG1        0.0241
     13 C          14.6005  -10.2793   20.2619 C.3     1  LIG1        0.0372
     14 C          19.5144  -13.8108   21.3000 C.3     1  LIG1        0.0157
     15 C          19.5371  -14.6090   24.8070 C.ar    1  LIG1       -0.0415
     16 C          13.5525  -10.3776   21.3703 C.ar    1  LIG1       -0.0260
     17 C          19.7917  -13.3123   25.2901 C.ar    1  LIG1       -0.0584
     18 C          12.7721  -11.5442   21.5857 C.ar    1  LIG1       -0.0457
     19 C          21.1054  -12.8312   25.4007 C.ar    1  LIG1       -0.0615
     20 C          11.7792  -11.5483   22.5905 C.ar    1  LIG1       -0.0572
     21 C          22.1850  -13.6592   25.0464 C.ar    1  LIG1       -0.0617
     22 C          11.5701  -10.4151   23.3971 C.ar    1  LIG1       -0.0431
     23 C          21.9443  -14.9725   24.6001 C.ar    1  LIG1       -0.0615
     24 C          12.3694   -9.2730   23.2182 C.ar    1  LIG1        0.0413
     25 C          20.6231  -15.4476   24.4787 C.ar    1  LIG1       -0.0584
     26 C          13.3447   -9.2541   22.2017 C.ar    1  LIG1       -0.0385
     27 H          18.1987  -11.1319   21.7552 H       1  LIG1        0.0597
     28 H          18.7713  -12.1966   18.9815 H       1  LIG1        0.0288
     29 H          19.5119  -10.8469   19.8329 H       1  LIG1        0.0288
     30 H          18.3523  -15.7097   22.5722 H       1  LIG1        0.0952
     31 H          16.4535   -9.9185   21.2309 H       1  LIG1        0.1491
     32 H          20.7979  -13.2353   19.6198 H       1  LIG1        0.0281
     33 H          20.9390  -12.2232   21.0514 H       1  LIG1        0.0281
     34 H          16.5305  -16.8685   23.4768 H       1  LIG1        0.2002
     35 H          15.6578  -15.4670   23.5979 H       1  LIG1        0.2002
     36 H          16.1005  -16.0317   22.1180 H       1  LIG1        0.2002
     37 H          17.4346  -14.4699   25.2226 H       1  LIG1        0.0373
     38 H          18.0499  -16.0861   25.0816 H       1  LIG1        0.0373
     39 H          14.6229   -9.2395   19.9408 H       1  LIG1        0.0512
     40 H          14.2982  -10.8463   19.3811 H       1  LIG1        0.0512
     41 H          20.1305  -14.0741   22.1584 H       1  LIG1        0.0465
     42 H          19.3317  -14.7162   20.7198 H       1  LIG1        0.0465
     43 H          18.9836  -12.6796   25.5998 H       1  LIG1        0.0620
     44 H          21.2718  -11.8319   25.7737 H       1  LIG1        0.0618
     45 H          11.1758  -12.4294   22.7620 H       1  LIG1        0.0621
     46 H          23.1977  -13.2959   25.1364 H       1  LIG1        0.0618
     47 H          22.7761  -15.6154   24.3500 H       1  LIG1        0.0618
     48 CL         12.1866   -7.9177   24.2734 Cl      1  LIG1       -0.0835
     49 H          20.4503  -16.4525   24.1211 H       1  LIG1        0.0620
     50 H          13.9540   -8.3729   22.0762 H       1  LIG1        0.0635
     51 H          10.8148  -10.4350   24.1703 H       1  LIG1        0.0632
     52 C          12.9870  -12.8115   20.7791 C.3     1  LIG1       -0.0394
     53 H          12.2300  -13.5615   21.0116 H       1  LIG1        0.0278
     54 H          12.9422  -12.6183   19.7085 H       1  LIG1        0.0278
     55 H          13.9602  -13.2416   21.0165 H       1  LIG1        0.0278
@<TRIPOS>BOND
     1     1     2    1
     2     1    14    1
     3     1     3   am
     4     2     5    1
     5     2     7    1
     6     2    27    1
     7     3     8    1
     8     3     4    2
     9     5     6    2
    10     5     9   am
    11     7    10    1
    12     7    28    1
    13     7    29    1
    14     8    11    1
    15     8    12    1
    16     8    30    1
    17     9    13    1
    18     9    31    1
    19    10    14    1
    20    10    32    1
    21    10    33    1
    22    11    34    1
    23    11    35    1
    24    11    36    1
    25    12    15    1
    26    12    37    1
    27    12    38    1
    28    13    16    1
    29    13    39    1
    30    13    40    1
    31    14    41    1
    32    14    42    1
    33    15    17   ar
    34    15    25   ar
    35    16    18   ar
    36    16    26   ar
    37    17    19   ar
    38    17    43    1
    39    18    20   ar
    40    18    52    1
    41    19    21   ar
    42    19    44    1
    43    20    22   ar
    44    20    45    1
    45    21    23   ar
    46    21    46    1
    47    22    24   ar
    48    22    51    1
    49    23    25   ar
    50    23    47    1
    51    24    26   ar
    52    24    48    1
    53    25    49    1
    54    26    50    1
    55    52    53    1
    56    52    54    1
    57    52    55    1
