@<TRIPOS>MOLECULE
UNK
   35    37     1     0     0
SMALL
bcc


@<TRIPOS>ATOM
      1 N            0.4610    10.1750    24.4240 nc        -2 UNK      -0.869000
      2 N            0.4450    12.1180    23.6900 nh        -3 UNK      -0.882500
      3 N            0.1860    12.1630    24.1090 n2        -1 UNK      -0.039000
      4 C            0.5860    10.2580    23.8460 c3         2 UNK       0.057600
      5 C1           0.4510    11.7280    24.2080 ca         2 UNK      -0.190000
      6 C            0.6140    12.5280    24.2290 ca         3 UNK      -0.153000
      7 C3           0.5340    13.8980    24.5380 ca         3 UNK      -0.003000
      8 C2           0.2860    14.4760    24.8250 ca         2 UNK      -0.131000
      9 C            0.1240    13.6820    24.8080 ca         1 UNK      -0.120000
     10 C4           0.1870    12.3020    24.5090 ca         1 UNK      -0.173500
     11 C            0.0640    11.5220    24.5080 cc         0 UNK       0.233800
     12 C5           0.1000    10.1600    24.8760 cd         0 UNK      -0.205600
     13 C            0.3530     9.5150    24.8280 c2        -1 UNK       0.221300
     14 C            0.3140    11.4560    24.0920 cd        -2 UNK       0.365900
     15 C6           0.5170     8.0940    25.1750 ca        -1 UNK       0.039000
     16 C7           0.3780     7.1190    24.1620 ca        -1 UNK      -0.092000
     17 C8           0.5290     5.7490    24.4480 ca        -1 UNK      -0.128000
     18 C9           0.8190     5.3340    25.7600 ca        -1 UNK       0.030400
     19 C10          0.9520     6.2920    26.7820 ca        -1 UNK      -0.126000
     20 C11          0.8000     7.6640    26.4970 ca        -1 UNK      -0.036000
     21 Cl           0.0060     3.6560    26.1170 cl        -2 UNK      -0.079400
     22 Cl           0.9440     8.7960    27.7960 cl        -1 UNK       0.007000
     23 H            0.3340    11.6410    23.6740 hn        -4 UNK       0.390300
     24 H            0.4010    13.0950    23.4420 hn        -3 UNK       0.390300
     25 H01          0.1740     5.9710    27.8000 ha        -2 UNK       0.164000
     26 H02          0.4880    10.1380    22.7670 hc         2 UNK       0.106000
     27 H03          0.5820    12.0800    24.0040 ha         4 UNK       0.227000
     28 H04          0.4370    14.5090    24.5550 ha         4 UNK       0.148000
     29 H05          0.2180    15.5380    25.0610 ha         2 UNK       0.128000
     30 H06          0.1590    14.1390    25.0290 ha         0 UNK       0.133000
     31 H07          0.8010     9.6300    25.1840 ha         0 UNK       0.146000
     32 H08          0.1500     7.4330    23.1430 ha        -1 UNK       0.153000
     33 H09          0.4210     5.0110    23.6530 ha        -1 UNK       0.155000
     34 H10          0.8060     9.6860    24.3480 hc         1 UNK       0.066700
     35 H11          0.5630     9.8940    24.1640 hc         3 UNK       0.066700
@<TRIPOS>BOND
     1     1    13 1   
     2     1    14 2   
     3     2    14 1   
     4     2    23 1   
     5     2    24 1   
     6     3    11 1   
     7     3    14 1   
     8     4     5 1   
     9     4    26 1   
    10     4    34 1   
    11     4    35 1   
    12     5     6 ar  
    13     5    10 ar  
    14     6     7 ar  
    15     6    27 1   
    16     7     8 ar  
    17     7    28 1   
    18     8     9 ar  
    19     8    29 1   
    20     9    10 ar  
    21     9    30 1   
    22    10    11 1   
    23    11    12 2   
    24    12    13 1   
    25    12    31 1   
    26    13    15 1   
    27    15    16 1   
    28    15    20 1   
    29    16    17 1   
    30    16    32 1   
    31    17    18 1   
    32    17    33 1   
    33    18    19 1   
    34    18    21 1   
    35    19    20 1   
    36    19    25 1   
    37    20    22 1   
@<TRIPOS>SUBSTRUCTURE
     1 UNK         1 TEMP              0 ****  ****    0 ROOT
